MAT-27

loop_
_symmetry_equiv_pos_as_xyz
  x,y,z
_cell_length_a          13.8275
_cell_length_b          34.7492
_cell_length_c          31.8913
_cell_angle_alpha       90.0000
_cell_angle_beta        90.0000
_cell_angle_gamma       90.0000
loop_
_atom_site_label
_atom_site_type_symbol
_atom_site_fract_x
_atom_site_fract_y
_atom_site_fract_z
A_2     C     0.553     0.92     0.9279
A_3     C     0.0833     0.989     0.2152
A_1     C     0.9151     0.7412     0.9856
A_1     C     0.8308     0.7093     0.0688
A_0     C     0.5504     0.6421     0.4019
A_0     C     0.3174     0.0561     0.549
A_1     C     0.5106     0.4455     0.7796
A_1     C     0.5094     0.6917     0.1081
A_0     C     0.967     0.0472     0.9763
A_0     C     0.5562     0.8341     0.0405
A_2     C     0.7801     0.9903     0.9803
A_2     C     0.011     0.5302     0.9745
A_3     C     0.7009     0.851     0.9032
A_3     C     0.0537     0.6121     0.5186
A_1     C     0.0318     0.4449     0.5341
A_0     C     0.4838     0.0902     0.7409
A_3     C     0.4323     0.9912     0.336
A_1     C     0.4803     0.7878     0.9606
A_0     C     0.0131     0.3763     0.5091
A_3     C     0.163     0.7067     0.1001
A_3     C     0.5032     0.8599     0.5287
A_2     C     0.2735     0.7276     0.5281
A_2     C     0.378     0.5125     0.7322
A_1     C     0.6034     0.6599     0.8838
A_3     C     0.581     0.8235     0.8627
A_0     C     0.0534     0.0905     0.6006
A_2     C     0.5032     0.2229     0.6754
A_1     C     0.4845     0.9442     0.0741
A_1     C     0.5495     0.2896     0.4344
A_3     C     0.6979     0.0685     0.1159
A_0     C     0.5333     0.4139     0.1583
A_1     C     0.6099     0.0475     0.7612
A_1     C     0.5442     0.0728     0.953
A_1     C     0.235     0.3631     0.8258
A_2     C     0.3674     0.0598     0.8187
A_2     C     0.9469     0.0134     0.1862
A_2     C     0.2083     0.5625     0.3784
A_0     C     0.3388     0.0449     0.3614
A_2     C     0.0564     0.6758     0.8318
A_2     C     0.9075     0.7402     0.0467
A_1     C     0.5089     0.8067     0.838
A_3     C     0.8701     0.3176     0.7761
A_2     C     0.5605     0.1103     0.5853
A_2     C     0.2607     0.9978     0.4333
A_0     C     0.352     0.7223     0.0602
A_1     C     0.8615     0.7166     0.8129
A_1     C     0.6582     0.5869     0.6317
A_2     C     0.6514     0.8488     0.3981
A_3     C     0.9831     0.8364     0.4653
A_0     C     0.8928     0.0984     0.6767
A_3     C     0.2893     0.4365     0.7216
A_3     C     0.0897     0.203     0.0867
A_1     C     0.5318     0.5447     0.1111
A_2     C     0.6925     0.4589     0.7281
A_2     C     0.6757     0.9365     0.5502
A_1     C     0.6079     0.5819     0.9172
A_2     C     0.9822     0.241     0.0057
A_1     C     0.3135     0.0743     0.9321
A_3     C     0.4411     0.4469     0.7945
A_0     C     0.3823     0.5558     0.8324
A_2     C     0.2023     0.4825     0.2367
A_3     C     0.5173     0.5422     0.4047
A_1     C     0.8692     0.5741     0.6675
A_3     C     0.4438     0.5828     0.2748
A_2     C     0.3701     0.0192     0.9214
A_0     C     0.1661     0.2341     0.8694
A_0     C     0.9125     0.5498     0.6101
A_2     C     0.2306     0.8152     0.5276
A_2     C     0.6035     0.6786     0.1046
A_1     C     0.7864     0.8052     0.4525
A_3     C     0.3641     0.1429     0.1415
A_0     C     0.0296     0.2338     0.397
A_1     C     0.9791     0.7224     0.5917
A_0     C     0.6482     0.9614     0.6509
A_2     C     0.5574     0.1368     0.33
A_3     C     0.8253     0.3968     0.9363
A_0     C     0.0828     0.8855     0.8333
A_2     C     0.4501     0.0255     0.1066
A_0     C     0.3467     0.1591     0.6564
A_3     C     0.0876     0.3094     0.0927
A_3     C     0.0681     0.9217     0.6218
A_2     C     0.2148     0.689     0.91
A_1     C     0.3063     0.9491     0.7756
A_2     C     0.4425     0.9109     0.1165
A_3     C     0.6577     0.5329     0.716
A_3     C     0.4836     0.5343     0.4005
A_1     C     0.3973     0.2032     0.2302
A_3     C     0.3205     0.9922     0.9314
A_2     C     0.1787     0.4158     0.0832
A_1     C     0.1646     0.9938     0.891
A_1     C     0.7224     0.7549     0.4835
A_0     C     0.0401     0.8726     0.3078
A_0     C     0.6973     0.2559     0.962
A_0     C     0.7856     0.2054     0.3602
A_0     C     0.1448     0.8564     0.5914
A_0     C     0.216     0.111     0.8056
A_3     C     0.8704     0.3589     0.5527
A_3     C     0.332     0.1604     0.6472
A_1     C     0.7965     0.5214     0.0911
A_1     C     0.4192     0.0684     0.3378
A_3     C     0.6923     0.7768     0.5107
A_2     C     0.7969     0.9795     0.0046
A_0     C     0.502     0.4492     0.9452
A_0     C     0.7736     0.7401     0.0699
A_2     C     0.6635     0.6935     0.6146
A_3     C     0.1712     0.2835     0.8253
A_0     C     0.8676     0.6446     0.7505
A_2     C     0.3647     0.2376     0.3031
A_1     C     0.8093     0.5705     0.519
A_1     C     0.5891     0.0313     0.484
A_0     C     0.8517     0.2787     0.8341
A_3     C     0.9195     0.1422     0.4366
A_1     C     0.7042     0.3831     0.2374
A_0     C     0.169     0.5332     0.0643
A_3     C     0.4882     0.1308     0.0624
A_1     C     0.258     0.9929     0.0297
A_0     C     0.7311     0.8833     0.5003
A_0     C     0.1743     0.9102     0.1089
A_2     C     0.1256     0.3993     0.8091
A_1     C     0.4349     0.3523     0.3443
A_2     C     0.1407     0.8003     0.2261
A_0     C     0.764     0.0216     0.9907
A_2     C     0.1316     0.8152     0.1752
A_1     C     0.513     0.2948     0.6355
A_0     C     0.6569     0.3425     0.7397
A_3     C     0.7499     0.6914     0.4869
A_3     C     0.8492     0.378     0.5871
A_1     C     0.7551     0.3564     0.3784
A_0     C     0.4679     0.7478     0.3737
A_0     C     0.288     0.195     0.4697
A_1     C     0.8875     0.7924     0.6329
A_0     C     0.3257     0.1119     0.672
A_0     C     0.8034     0.441     0.743
A_0     C     0.4864     0.4701     0.5428
A_3     C     0.626     0.3085     0.5178
A_3     C     0.8595     0.0561     0.7116
A_1     C     0.5101     0.2641     0.486
A_2     C     0.0043     0.6653     0.4633
A_2     C     0.1553     0.0876     0.9529
A_0     C     0.7008     0.0531     0.5833
A_1     C     0.2321     0.8503     0.3023
A_3     C     0.0161     0.6988     0.7041
A_1     C     0.2449     0.0802     0.2195
A_3     C     0.7023     0.8171     0.7832
A_1     C     0.1041     0.2681     0.1835
A_1     C     0.3256     0.9668     0.5823
A_2     C     0.5236     0.3215     0.1462
A_3     C     0.7837     0.0554     0.8433
A_1     C     0.6483     0.6159     0.8993
A_1     C     0.5348     0.2474     0.4783
A_3     C     0.6403     0.2169     0.4806
A_2     C     0.371     0.5097     0.3827
A_3     C     0.2154     0.3038     0.6712
A_3     C     0.8102     0.2513     0.164
A_2     C     0.9593     0.4607     0.3882
A_1     C     0.6472     0.0113     0.3293
A_2     C     0.7605     0.5654     0.2866
A_0     C     0.7539     0.0844     0.3662
A_3     C     0.3904     0.994     0.4993
A_1     C     0.6771     0.0082     0.9454
A_3     C     0.7638     0.9144     0.2625
A_1     C     0.4903     0.6253     0.3223
A_0     C     0.8944     0.2042     0.7216
A_1     C     0.3118     0.7302     0.9021
A_3     C     0.0642     0.1036     0.636
A_1     C     0.0749     0.7895     0.7967
A_1     C     0.997     0.5761     0.0646
A_2     C     0.9062     0.0534     0.3794
A_2     C     0.8849     0.5456     0.0488
A_0     C     0.4783     0.6034     0.8764
A_2     C     0.0069     0.2105     0.148
A_2     C     0.4289     0.438     0.9953
A_1     C     0.1399     0.7501     0.2865
A_0     C     0.7644     0.6133     0.2491
A_0     C     0.4048     0.0758     0.9517
A_0     C     0.789     0.2658     0.0809
A_0     C     0.5367     0.9935     0.1876
A_0     C     0.4812     0.0377     0.2273
A_2     C     0.8283     0.3072     0.2171
A_0     C     0.4609     0.2811     0.8959
A_3     C     0.3768     0.2552     0.9457
A_2     C     0.2343     0.0708     0.8717
A_0     C     0.8287     0.2235     0.1207
A_2     C     0.7094     0.8434     0.495
A_0     C     0.9659     0.5861     0.6095
A_1     C     0.4596     0.0509     0.941
A_2     C     0.5747     0.0815     0.4817
A_0     C     0.8476     0.2225     0.5302
A_3     C     0.8741     0.1283     0.2206
A_2     C     0.4357     0.2983     0.8589
A_3     C     0.8163     0.5556     0.4378
A_3     C     0.7829     0.2688     0.4116
A_3     C     0.3948     0.5218     0.1432
A_2     C     0.7814     0.1178     0.3478
A_0     C     0.629     0.4998     0.1267
A_1     C     0.2053     0.2957     0.2122
A_3     C     0.7711     0.0508     0.2862
A_2     C     0.7924     0.7638     0.346
A_2     C     0.5704     0.3445     0.6643
A_2     C     0.5754     0.8329     0.7655
A_1     C     0.3719     0.5092     0.6673
A_0     C     0.3928     0.262     0.7942
A_2     C     0.2522     0.6972     0.4066
A_1     C     0.8972     0.8616     0.8018
A_3     C     0.461     0.8979     0.4225
A_2     C     0.7176     0.6658     0.2068
A_3     C     0.4399     0.1858     0.0545
A_1     C     0.9406     0.7063     0.5189
A_3     C     0.6207     0.9078     0.3323
A_2     C     0.3167     0.6827     0.0748
A_2     C     0.169     0.4109     0.7281
A_2     C     0.0131     0.7076     0.5369
A_1     C     0.0821     0.338     0.671
A_2     C     0.9425     0.8382     0.5751
A_1     C     0.8892     0.98     0.3617
A_2     C     0.1263     0.5533     0.4824
A_0     C     0.8585     0.4706     0.5602
A_1     C     0.8544     0.6919     0.6834
A_2     C     0.1091     0.5663     0.085
A_0     C     0.8065     0.3383     0.3036
A_2     C     0.9711     0.7834     0.6666
A_1     C     0.5512     0.2024     0.0001
A_2     C     0.0349     0.4921     0.8032
A_3     C     0.2146     0.3103     0.7716
A_2     C     0.8307     0.6503     0.5473
A_1     C     0.4488     0.9236     0.4706
A_2     C     0.9671     0.3741     0.4089
A_0     C     0.7241     0.8242     0.7225
A_1     C     0.266     0.0603     0.2576
A_2     C     0.8863     0.8341     0.509
A_1     C     0.7151     0.1363     0.4685
A_3     C     0.2946     0.1622     0.9836
A_0     C     0.8128     0.5652     0.3536
A_1     C     0.7583     0.2549     0.0236
A_0     C     0.8107     0.269     0.3492
A_3     C     0.4775     0.3776     0.8109
A_2     C     0.464     0.8849     0.0045
A_0     C     0.9002     0.5317     0.5033
A_0     C     0.8403     0.2548     0.7349
A_1     C     0.9186     0.5827     0.2449
A_0     C     0.484     0.1631     0.6948
A_1     C     0.8627     0.8992     0.2082
A_2     C     0.8388     0.8031     0.7575
A_3     C     0.2078     0.9153     0.5125
A_1     C     0.768     0.4869     0.1559
A_3     C     0.5545     0.9078     0.5316
A_0     C     0.8402     0.1752     0.6462
A_3     C     0.9638     0.582     0.9966
A_1     C     0.6737     0.3709     0.6815
A_1     C     0.9924     0.5425     0.2853
A_0     C     0.9582     0.1344     0.2652
A_2     C     0.4772     0.8347     0.2447
A_1     C     0.4441     0.2405     0.1929
A_2     C     0.9931     0.1742     0.7833
A_2     C     0.9802     0.5366     0.9814
A_3     C     0.7902     0.6485     0.8661
A_3     C     0.388     0.2771     0.0839
A_3     C     0.6649     0.0414     0.583
A_2     C     0.1788     0.0778     0.9982
A_1     C     0.8522     0.4483     0.3293
A_1     C     0.9936     0.4166     0.6996
A_1     C     0.0186     0.9065     0.6775
A_3     C     0.1036     0.1633     0.8036
A_1     C     0.5608     0.6805     0.7756
A_3     C     0.289     0.6795     0.6475
A_2     C     0.6388     0.3635     0.8012
A_0     C     0.3565     0.2991     0.7831
A_3     C     0.343     0.9945     0.2541
A_1     C     0.2973     0.7305     0.9379
A_2     C     0.767     0.6374     0.4607
A_0     C     0.8298     0.7533     0.7912
A_1     C     0.0915     0.3707     0.163
A_3     C     0.3488     0.8056     0.9918
A_1     C     0.7954     0.0414     0.9797
A_0     C     0.7196     0.6981     0.425
A_2     C     0.0445     0.6628     0.3084
A_0     C     0.7914     0.6591     0.7541
A_3     C     0.775     0.7055     0.8328
A_2     C     0.2178     0.7519     0.688
A_0     C     0.8409     0.8376     0.5968
A_1     C     0.7307     0.0726     0.6816
A_0     C     0.9175     0.455     0.1569
A_0     C     0.833     0.0923     0.4504
A_1     C     0.1049     0.1835     0.5798
A_2     C     0.0696     0.0288     0.0934
A_0     C     0.9761     0.4524     0.858
A_0     C     0.5801     0.8701     0.1273
A_0     C     0.0176     0.2209     0.8791
A_1     C     0.6894     0.9534     0.4825
A_0     C     0.7903     0.3775     0.3423
A_3     C     0.1786     0.7512     0.6438
A_0     C     0.7116     0.6829     0.7515
A_1     C     0.6716     0.8888     0.2137
A_3     C     0.452     0.9171     0.6398
A_1     C     0.286     0.3891     0.9754
A_2     C     0.4984     0.6538     0.4544
A_2     C     0.3723     0.4328     0.9673
A_0     C     0.2533     0.0597     0.0448
A_0     C     0.0051     0.9637     0.5898
A_0     C     0.049     0.668     0.02
A_3     C     0.9506     0.4864     0.0933
A_1     C     0.4202     0.6465     0.1709
A_1     C     0.5287     0.0481     0.3625
A_3     C     0.4756     0.3365     0.1613
A_1     C     0.9193     0.1627     0.374
A_2     C     0.1646     0.7287     0.0576
A_0     C     0.5759     0.3693     0.0884
A_0     C     0.3977     0.6322     0.0462
A_1     C     0.8024     0.264     0.9157
A_3     C     0.4976     0.6166     0.083
A_1     C     0.8056     0.4252     0.5449
A_2     C     0.4854     0.3932     0.2824
A_0     C     0.5606     0.0679     0.0527
A_2     C     0.1702     0.0058     0.1217
A_1     C     0.0325     0.1956     0.5266
A_0     C     0.6148     0.0029     0.3759
A_0     C     0.4121     0.9883     0.4
A_2     C     0.3785     0.4657     0.1246
A_1     C     0.443     0.3109     0.9727
A_3     C     0.0252     0.8578     0.7982
A_3     C     0.2111     0.0683     0.8891
A_1     C     0.2832     0.6286     0.9828
A_0     C     0.6807     0.2318     0.4839
A_3     C     0.618     0.9961     0.9564
A_3     C     0.8712     0.6634     0.9998
A_0     C     0.5551     0.7388     0.0043
A_1     C     0.5475     0.6515     0.1572
A_0     C     0.5284     0.5334     0.0376
A_3     C     0.224     0.7886     0.9851
A_0     C     0.748     0.6624     0.1748
A_0     C     0.5857     0.1593     0.8286
A_2     C     0.915     0.9792     0.5178
A_1     C     0.6931     0.4795     0.8301
A_2     C     0.3338     0.8741     0.4757
A_3     C     0.1342     0.3904     0.4753
A_2     C     0.211     0.1465     0.3838
A_2     C     0.167     0.7508     0.0481
A_2     C     0.3247     0.7125     0.3642
A_2     C     0.3042     0.1671     0.3341
A_0     C     0.4863     0.1618     0.0817
A_0     C     0.359     0.0626     0.9028
A_3     C     0.0075     0.8452     0.3056
A_2     C     0.4845     0.1128     0.2432
A_2     C     0.3878     0.8713     0.3452
A_0     C     0.7829     0.9493     0.0776
A_2     C     0.8722     0.3822     0.2732
A_3     C     0.0406     0.3777     0.9028
A_1     C     0.2754     0.1219     0.8002
A_1     C     0.9597     0.8924     0.8049
A_1     C     0.8478     0.9207     0.1666
A_0     C     0.0441     0.8909     0.0796
A_2     C     0.3044     0.8316     0.5981
A_3     C     0.3104     0.6841     0.2821
A_2     C     0.7158     0.3818     0.6673
A_3     C     0.3488     0.1532     0.9828
A_2     C     0.4381     0.6076     0.5062
A_2     C     0.7552     0.8687     0.9471
A_2     C     0.5005     0.5928     0.0491
A_2     C     0.8492     0.7424     0.3582
A_2     C     0.1521     0.6697     0.3847
A_1     C     0.4713     0.7758     0.7767
A_3     C     0.0531     0.1762     0.8612
A_2     C     0.0072     0.2246     0.7887
A_3     C     0.0949     0.8316     0.6012
A_3     C     0.5939     0.6754     0.979
A_3     C     0.2731     0.0738     0.9792
A_3     C     0.3265     0.139     0.2354
A_1     C     0.2934     0.1953     0.7368
A_2     C     0.7529     0.3837     0.6314
A_2     C     0.315     0.7938     0.3501
A_0     C     0.474     0.325     0.632
A_3     C     0.6229     0.0045     0.4998
A_3     C     0.2527     0.4916     0.6124
A_1     C     0.0455     0.3815     0.6207
A_2     C     0.7744     0.3764     0.3089
A_2     C     0.5403     0.5336     0.2274
A_1     C     0.1095     0.2353     0.6104
A_0     C     0.0345     0.8994     0.2788
A_1     C     0.1427     0.1595     0.435
A_0     C     0.9914     0.4946     0.1716
A_2     C     0.3148     0.034     0.3139
A_2     C     0.7119     0.1132     0.2853
A_2     C     0.0415     0.4653     0.3135
A_0     C     0.3763     0.684     0.0096
A_3     C     0.137     0.6048     0.1008
A_0     C     0.5011     0.1994     0.154
A_1     C     0.7396     0.6995     0.972
A_3     C     0.1851     0.6234     0.5816
A_1     C     0.6886     0.0471     0.6463
A_3     C     0.391     0.8068     0.4509
A_2     C     0.8244     0.7098     0.7469
A_3     C     0.7622     0.8684     0.8615
A_0     C     0.0696     0.7259     0.1488
A_2     C     0.2772     0.0812     0.2775
A_2     C     0.6559     0.0622     0.894
A_3     C     0.8421     0.1353     0.1108
A_1     C     0.0355     0.8074     0.9222
A_1     C     0.1116     0.2278     0.3437
A_0     C     0.2594     0.3868     0.4395
A_2     C     0.0761     0.9154     0.9144
A_0     C     0.1736     0.8412     0.2033
A_2     C     0.1799     0.611     0.0384
A_2     C     0.8574     0.1253     0.2127
A_3     C     0.1216     0.4913     0.0428
A_2     C     0.6563     0.4296     0.7338
A_2     C     0.3715     0.9455     0.135
A_2     C     0.0958     0.2589     0.0039
A_1     C     0.5003     0.2894     0.9275
A_1     C     0.6538     0.615     0.2725
A_3     C     0.4671     0.7208     0.7472
A_2     C     0.4488     0.7534     0.6435
A_1     C     0.3732     0.9206     0.1991
A_2     C     0.4745     0.8561     0.8649
A_1     C     0.2452     0.7297     0.072
A_0     C     0.8539     0.7804     0.1041
A_3     C     0.9084     0.9306     0.5352
A_2     C     0.5525     0.4195     0.6766
A_0     C     0.3448     0.5122     0.7097
A_2     C     0.1385     0.6635     0.3597
A_3     C     0.5007     0.8927     0.7467
A_2     C     0.587     0.2126     0.7727
A_0     C     0.5523     0.2187     0.1244
A_3     C     0.2419     0.4231     0.7425
A_0     C     0.0623     0.0305     0.7202
A_3     C     0.1885     0.6125     0.3444
A_1     C     0.5096     0.8706     0.4226
A_2     C     0.1422     0.3376     0.7219
A_1     C     0.3386     0.7701     0.1706
A_3     C     0.4613     0.3128     0.9548
A_1     C     0.5473     0.0044     0.9692
A_3     C     0.5604     0.4287     0.8193
A_1     C     0.4042     0.9908     0.8576
A_0     C     0.7875     0.3769     0.4215
A_0     C     0.3035     0.1715     0.5442
A_0     C     0.2147     0.3059     0.4264
A_1     C     0.522     0.2373     0.0008
A_1     C     0.4622     0.0333     0.5678
A_1     C     0.9674     0.1133     0.193
A_3     C     0.1469     0.4119     0.6912
A_3     C     0.4736     0.1196     0.2414
A_0     C     0.0273     0.7031     0.4251
A_3     C     0.5989     0.6561     0.6084
A_3     C     0.5658     0.6598     0.6527
A_3     C     0.6191     0.6609     0.7124
A_2     C     0.2451     0.8434     0.9083
A_0     C     0.4228     0.0283     0.6348
A_1     C     0.8551     0.5938     0.1272
A_3     C     0.1123     0.5097     0.0459
A_3     C     0.2208     0.3056     0.6036
A_3     C     0.9279     0.903     0.9937
A_3     C     0.2223     0.4915     0.3054
A_2     C     0.1312     0.8205     0.5471
A_1     C     0.9225     0.9058     0.7135
A_1     C     0.4212     0.5864     0.5326
A_2     C     0.7965     0.2808     0.0497
A_0     C     0.2125     0.5957     0.5807
A_1     C     0.1054     0.7048     0.8794
A_3     C     0.6087     0.1759     0.2411
A_1     C     0.6244     0.0239     0.9818
A_1     C     0.7111     0.5497     0.3408
A_3     C     0.7359     0.0372     0.3097
A_2     C     0.1153     0.7144     0.8713
A_2     C     0.2819     0.0254     0.3223
A_1     C     0.9365     0.9931     0.0037
A_2     C     0.547     0.2408     0.4649
A_2     C     0.1292     0.9097     0.3427
A_3     C     0.0997     0.3186     0.8279
A_1     C     0.5603     0.6818     0.6631
A_0     C     0.551     0.9542     0.7805
A_3     C     0.6794     0.9531     0.902
A_0     C     0.2904     0.3816     0.0237
A_1     C     0.0863     0.5757     0.3608
A_0     C     0.4003     0.3492     0.2257
A_0     C     0.7022     0.1705     0.4479
A_2     C     0.4306     0.7507     0.9259
A_2     C     0.2222     0.2165     0.3022
A_1     C     0.5156     0.8487     0.0907
A_1     C     0.8691     0.6981     0.2162
A_0     C     0.8388     0.5819     0.861
A_3     C     0.8663     0.4909     0.5306
A_1     C     0.0128     0.2114     0.6999
A_3     C     0.0537     0.6124     0.9794
A_2     C     0.8707     0.1665     0.6154
A_3     C     0.8463     0.3976     0.9812
A_2     C     0.8688     0.0569     0.3531
A_2     C     0.1891     0.0887     0.4051
A_2     C     0.7221     0.6374     0.3574
A_0     C     0.3818     0.3866     0.2517
A_3     C     0.8154     0.9454     0.9518
A_1     C     0.6062     0.3191     0.8113
A_0     C     0.4109     0.684     0.8104
A_2     C     0.6323     0.9012     0.2596
A_3     C     0.2695     0.2706     0.2885
A_3     C     0.7862     0.5531     0.0303
A_3     C     0.9015     0.3169     0.3652
A_0     C     0.7824     0.1978     0.3667
A_2     C     0.1513     0.9466     0.0642
A_2     C     0.5422     0.559     0.8772
A_0     C     0.5529     0.0857     0.0603
A_3     C     0.7196     0.0561     0.2527
A_2     C     0.6447     0.9219     0.9025
A_1     C     0.7778     0.7696     0.662
A_0     C     0.8098     0.678     0.1391
A_3     C     0.9505     0.1344     0.1411
A_0     C     0.5124     0.9255     0.4208
A_0     C     0.0704     0.4772     0.395
A_3     C     0.8855     0.2024     0.0485
A_0     C     0.4218     0.1787     0.5945
A_3     C     0.1477     0.9389     0.6544
A_1     C     0.2371     0.9104     0.0828
A_2     C     0.3905     0.5296     0.5938
A_2     C     0.2124     0.5064     0.5006
A_0     C     0.7539     0.3767     0.1982
A_2     C     0.5411     0.588     0.7321
A_2     C     0.6844     0.6352     0.5749
A_3     C     0.1977     0.2234     0.2994
A_1     C     0.9459     0.2051     0.1473
A_2     C     0.0784     0.2453     0.1302
A_2     C     0.212     0.1081     0.9662
A_1     C     0.3752     0.1566     0.4489
A_2     C     0.1141     0.5882     0.292
A_2     C     0.8933     0.0104     0.0334
A_3     C     0.0202     0.0932     0.0772
A_0     C     0.6592     0.5072     0.0718
A_3     C     0.3469     0.8199     0.7647
A_3     C     0.5601     0.7631     0.3725
A_0     C     0.036     0.7841     0.7771
A_3     C     0.5379     0.4244     0.8003
A_3     C     0.7869     0.6879     0.4075
A_0     C     0.6057     0.4351     0.9473
A_3     C     0.401     0.9026     0.0536
A_1     C     0.1105     0.0854     0.2727
A_3     C     0.1507     0.655     0.7836
A_0     C     0.5012     0.0216     0.9044
A_2     C     0.3124     0.1779     0.2608
A_1     C     0.3991     0.8935     0.3151
A_2     C     0.1345     0.2992     0.6176
A_0     C     0.8644     0.836     0.5892
A_1     C     0.6854     0.3682     0.1926
A_1     C     0.9289     0.7833     0.9989
A_1     C     0.3428     0.124     0.5125
A_2     C     0.257     0.2715     0.3195
A_1     C     0.902     0.162     0.9761
A_1     C     0.4921     0.0242     0.0119
A_0     C     0.8283     0.0682     0.793
A_2     C     0.8076     0.2992     0.8302
A_1     C     0.4354     0.0243     0.9721
A_3     C     0.4161     0.7622     0.3102
A_3     C     0.0652     0.7692     0.8429
A_3     C     0.6729     0.2106     0.9234
A_1     C     0.7405     0.6834     0.0709
A_3     C     0.6949     0.436     0.3447
A_1     C     0.7455     0.0009     0.3971
A_0     C     0.9735     0.6754     0.5912
A_2     C     0.038     0.6804     0.9342
A_0     C     0.5977     0.1966     0.4204
A_3     C     0.3574     0.5015     0.3641
A_3     C     0.4396     0.3133     0.3576
A_1     C     0.2585     0.9802     0.2029
A_2     C     0.3442     0.467     0.1651
A_2     C     0.5504     0.3683     0.0762
A_2     C     0.0797     0.7618     0.6747
A_1     C     0.3698     0.2372     0.123
A_3     C     0.1517     0.2807     0.8759
A_0     C     0.0386     0.0955     0.0861
A_1     C     0.926     0.9231     0.8739
A_0     C     0.8852     0.1756     0.3465
A_2     C     0.1185     0.6644     0.6319
A_1     C     0.9246     0.9376     0.7214
A_2     C     0.2194     0.2262     0.8465
A_0     C     0.1887     0.787     0.5066
A_3     C     0.4155     0.8308     0.1907
A_3     C     0.257     0.4551     0.2686
A_3     C     0.8085     0.3643     0.7015
A_3     C     0.7168     0.2774     0.3326
A_2     C     0.7891     0.9039     0.9818
A_2     C     0.7998     0.2786     0.3201
A_1     C     0.6718     0.0369     0.2352
A_0     C     0.1535     0.7662     0.1052
A_1     C     0.3681     0.9951     0.1538
A_0     C     0.9374     0.5492     0.6413
A_0     C     0.9296     0.6379     0.0963
A_0     C     0.991     0.3192     0.5104
A_0     C     0.1197     0.1926     0.817
A_2     C     0.2082     0.713     0.1406
A_2     C     0.9436     0.8256     0.2251
A_2     C     0.4769     0.0384     0.6842
A_0     C     0.0727     0.8634     0.8409
A_3     C     0.5387     0.4447     0.2436
A_2     C     0.3415     0.4462     0.6372
A_0     C     0.7534     0.5599     0.9121
A_3     C     0.193     0.0509     0.6055
A_1     C     0.8987     0.5893     0.0903
A_3     C     0.1402     0.8806     0.4727
A_3     C     0.7426     0.3829     0.9597
A_1     C     0.9711     0.3366     0.2361
A_2     C     0.8138     0.9701     0.4848
A_0     C     0.2259     0.1467     0.2785
A_3     C     0.0856     0.8889     0.8764
A_0     C     0.9854     0.8047     0.8444
A_3     C     0.421     0.8635     0.9709
A_3     C     0.5732     0.2225     0.1932
A_1     C     0.3476     0.0309     0.433
A_2     C     0.6968     0.3854     0.1265
A_1     C     0.6709     0.4456     0.6238
