MAT-77

loop_
_symmetry_equiv_pos_as_xyz
  x,y,z
_cell_length_a          32.4462
_cell_length_b          21.0556
_cell_length_c          43.5125
_cell_angle_alpha       90.0000
_cell_angle_beta        90.0000
_cell_angle_gamma       90.0000
loop_
_atom_site_label
_atom_site_type_symbol
_atom_site_fract_x
_atom_site_fract_y
_atom_site_fract_z
A_3     C     0.443     0.1638     0.0499
A_0     C     0.6169     0.259     0.4654
A_3     C     0.2511     0.3352     0.7981
A_0     C     0.1328     0.8093     0.8685
A_1     C     0.997     0.0653     0.0387
A_1     C     0.8919     0.0403     0.516
A_3     C     0.3049     0.5413     0.5501
A_3     C     0.1781     0.4032     0.3443
A_3     C     0.0737     0.6236     0.7867
A_3     C     0.9128     0.0377     0.3449
A_3     C     0.1557     0.611     0.9661
A_3     C     0.006     0.4722     0.5061
A_3     C     0.1381     0.9958     0.7651
A_3     C     0.1144     0.6307     0.6419
A_3     C     0.8074     0.7399     0.7656
A_3     C     0.3839     0.2926     0.2374
A_3     C     0.1597     0.7528     0.6085
A_3     C     0.5914     0.1954     0.9287
A_3     C     0.1958     0.9355     0.5534
A_3     C     0.9676     0.3676     0.6511
A_3     C     0.7968     0.6529     0.2634
A_3     C     0.2725     0.7299     0.2541
A_3     C     0.8199     0.7943     0.4379
A_3     C     0.2964     0.5513     0.1269
A_3     C     0.9349     0.6604     0.5105
A_3     C     0.9528     0.2369     0.8966
A_3     C     0.2146     0.058     0.9604
A_3     C     0.031     0.0239     0.5062
A_3     C     0.9428     0.0211     0.3003
A_3     C     0.0059     0.609     0.7444
A_3     C     0.3675     0.6554     0.6458
A_3     C     0.8225     0.4186     0.7041
A_3     C     0.8823     0.6817     0.4791
A_3     C     0.8413     0.9991     0.6413
A_3     C     0.7263     0.7459     0.1185
A_3     C     0.6711     0.3089     0.3659
