MAT-68

loop_
_symmetry_equiv_pos_as_xyz
  x,y,z
_cell_length_a          46.6393
_cell_length_b          24.4009
_cell_length_c          22.3242
_cell_angle_alpha       90.0000
_cell_angle_beta        90.0000
_cell_angle_gamma       90.0000
loop_
_atom_site_label
_atom_site_type_symbol
_atom_site_fract_x
_atom_site_fract_y
_atom_site_fract_z
A_3     C     0.773     0.1144     0.4472
A_0     C     0.0827     0.6095     0.7844
A_1     C     0.494     0.2819     0.0605
A_2     C     0.345     0.3166     0.9467
A_1     C     0.2473     0.9868     0.54
A_1     C     0.6201     0.9129     0.3314
A_0     C     0.2875     0.8004     0.735
A_1     C     0.8279     0.6189     0.5427
A_2     C     0.8586     0.4293     0.6384
A_3     C     0.8177     0.1878     0.7334
A_2     C     0.1278     0.5008     0.9047
A_0     C     0.3935     0.5208     0.707
A_2     C     0.304     0.3512     0.6178
A_0     C     0.4565     0.5284     0.9561
A_2     C     0.9628     0.7054     0.4666
A_1     C     0.3811     0.6545     0.3988
A_0     C     0.9867     0.2853     0.9762
A_3     C     0.4247     0.8182     0.1383
A_3     C     0.4168     0.1894     0.2948
A_1     C     0.2445     0.7359     0.3141
A_3     C     0.5171     0.6516     0.6878
A_3     C     0.1194     0.961     0.4296
A_2     C     0.9307     0.4585     0.0631
A_2     C     0.6515     0.3517     0.4052
A_3     C     0.4785     0.6823     0.4477
A_3     C     0.7116     0.6678     0.9532
A_2     C     0.7749     0.9933     0.5346
A_1     C     0.952     0.2624     0.071
A_3     C     0.4186     0.8908     0.7542
A_3     C     0.0397     0.3333     0.3221
A_0     C     0.7722     0.0938     0.2651
A_1     C     0.238     0.1021     0.045
A_2     C     0.472     0.6355     0.052
A_0     C     0.5642     0.195     0.9978
A_2     C     0.9219     0.6698     0.0752
A_2     C     0.9565     0.0092     0.865
A_0     C     0.7439     0.5595     0.0784
A_2     C     0.1414     0.5648     0.6183
A_1     C     0.6258     0.095     0.458
A_0     C     0.9132     0.0012     0.616
A_0     C     0.0622     0.1449     0.8069
A_2     C     0.1535     0.8663     0.5677
A_3     C     0.7486     0.2096     0.2781
A_2     C     0.8216     0.6778     0.0348
A_0     C     0.4028     0.3317     0.7338
A_1     C     0.0324     0.3594     0.6253
A_0     C     0.4168     0.7117     0.3913
A_3     C     0.9033     0.6312     0.2092
A_3     C     0.2659     0.9554     0.2625
A_1     C     0.5575     0.8214     0.6002
A_2     C     0.722     0.1652     0.1674
A_3     C     0.3351     0.3486     0.1865
A_1     C     0.0533     0.7885     0.8715
A_2     C     0.2372     0.9819     0.6266
A_1     C     0.139     0.3023     0.5361
A_0     C     0.0425     0.9284     0.0719
A_0     C     0.5879     0.5749     0.6188
A_3     C     0.3387     0.0999     0.6892
A_2     C     0.168     0.0699     0.6437
A_2     C     0.882     0.8496     0.604
A_0     C     0.6366     0.0181     0.3702
A_0     C     0.8163     0.5592     0.842
A_2     C     0.5088     0.4406     0.3494
A_2     C     0.2598     0.3483     0.5118
A_2     C     0.1738     0.7571     0.4352
A_2     C     0.5335     0.847     0.9311
A_1     C     0.2007     0.8178     0.2199
A_2     C     0.419     0.001     0.8288
A_2     C     0.7624     0.457     0.9528
A_1     C     0.0946     0.9381     0.8881
A_1     C     0.0023     0.6823     0.495
A_2     C     0.6893     0.8398     0.5321
A_3     C     0.7019     0.3237     0.4894
A_2     C     0.4352     0.0316     0.762
A_0     C     0.558     0.838     0.1866
A_2     C     0.5779     0.5916     0.5886
A_1     C     0.65     0.614     0.2494
A_1     C     0.3014     0.4194     0.2559
A_3     C     0.9521     0.3111     0.7747
A_2     C     0.7094     0.4737     0.3396
A_1     C     0.9817     0.0304     0.5343
A_2     C     0.5564     0.6387     0.7713
A_2     C     0.9577     0.4035     0.5935
A_2     C     0.125     0.2944     0.0096
A_0     C     0.0518     0.3781     0.2832
A_2     C     0.8179     0.0548     0.8332
A_3     C     0.8301     0.1377     0.8953
A_0     C     0.9069     0.9852     0.3305
A_1     C     0.0065     0.7267     0.987
A_2     C     0.7008     0.5631     0.0794
A_0     C     0.1741     0.5873     0.6903
A_0     C     0.5309     0.9984     0.036
A_2     C     0.8528     0.701     0.4124
A_0     C     0.5741     0.7091     0.206
A_1     C     0.6493     0.5126     0.9497
A_2     C     0.7522     0.2437     0.9363
A_0     C     0.7968     0.004     0.8471
A_3     C     0.4513     0.1237     0.1717
A_3     C     0.893     0.3135     0.7623
A_2     C     0.4357     0.3363     0.2623
A_0     C     0.9274     0.9881     0.0917
A_1     C     0.3488     0.9838     0.3534
A_2     C     0.4542     0.7698     0.3556
A_2     C     0.8374     0.7324     0.7522
A_1     C     0.763     0.49     0.7742
A_1     C     0.9329     0.0055     0.1823
A_1     C     0.3173     0.6134     0.0222
A_2     C     0.7283     0.1057     0.1355
A_2     C     0.2057     0.591     0.2178
A_2     C     0.6706     0.8753     0.0497
A_3     C     0.7294     0.0856     0.6686
A_3     C     0.0804     0.3633     0.5429
A_0     C     0.4187     0.8656     0.6265
A_0     C     0.0811     0.5223     0.0533
A_2     C     0.3486     0.3521     0.0415
A_2     C     0.0149     0.4984     0.1343
A_2     C     0.1558     0.79     0.7904
A_1     C     0.9334     0.2132     0.5315
A_2     C     0.7025     0.4448     0.5146
A_1     C     0.7008     0.6372     0.9177
A_1     C     0.7262     0.336     0.5258
A_0     C     0.1585     0.506     0.4835
A_3     C     0.9004     0.8968     0.8375
A_2     C     0.9804     0.002     0.9532
A_3     C     0.4786     0.0652     0.9972
A_3     C     0.7495     0.5551     0.5216
A_1     C     0.5412     0.828     0.886
A_3     C     0.6078     0.6781     0.1877
A_0     C     0.945     0.1626     0.1996
A_2     C     0.3902     0.565     0.7024
A_1     C     0.8353     0.1091     0.7847
A_1     C     0.1602     0.0103     0.2289
A_0     C     0.1453     0.1592     0.7267
A_0     C     0.1376     0.2793     0.6969
A_0     C     0.8581     0.3683     0.1462
A_0     C     0.1911     0.8619     0.7775
A_2     C     0.0258     0.0109     0.8668
A_3     C     0.6171     0.3915     0.8255
A_0     C     0.8908     0.1502     0.6193
A_3     C     0.6473     0.8196     0.5022
A_0     C     0.8409     0.1024     0.47
A_3     C     0.983     0.2639     0.3151
A_2     C     0.6935     0.8007     0.7273
A_1     C     0.5522     0.0337     0.8123
A_2     C     0.8075     0.0494     0.6048
A_0     C     0.1077     0.648     0.7885
A_1     C     0.057     0.3573     0.7816
A_3     C     0.0427     0.2074     0.1414
A_0     C     0.1489     0.5699     0.6213
A_1     C     0.4555     0.5422     0.419
A_3     C     0.0272     0.0449     0.7387
A_0     C     0.5972     0.2309     0.7745
A_2     C     0.8671     0.9946     0.2293
A_3     C     0.2294     0.0211     0.4765
A_3     C     0.3947     0.0791     0.5358
A_2     C     0.2811     0.6344     0.8037
A_1     C     0.9229     0.2479     0.0626
A_1     C     0.4204     0.1298     0.2872
A_2     C     0.2391     0.3953     0.4796
A_2     C     0.8054     0.7558     0.1672
A_3     C     0.5593     0.1897     0.844
A_3     C     0.6962     0.9414     0.7011
A_2     C     0.0308     0.564     0.8037
A_3     C     0.8871     0.8931     0.7007
A_1     C     0.9099     0.8516     0.4241
A_0     C     0.7693     0.3436     0.8676
A_0     C     0.7191     0.2658     0.2651
A_0     C     0.8705     0.9116     0.0733
A_3     C     0.3896     0.3032     0.4
A_3     C     0.03     0.4386     0.8189
A_3     C     0.711     0.166     0.8526
A_3     C     0.7171     0.4617     0.5637
A_3     C     0.2882     0.1425     0.845
A_3     C     0.7009     0.576     0.0409
A_3     C     0.2136     0.5114     0.5229
A_3     C     0.2632     0.179     0.8956
A_3     C     0.9297     0.4535     0.7842
A_3     C     0.0237     0.516     0.3092
A_3     C     0.9459     0.7938     0.9773
A_3     C     0.7696     0.7523     0.3118
A_3     C     0.5842     0.6025     0.3757
A_3     C     0.4151     0.02     0.4419
A_3     C     0.8696     0.9353     0.4001
A_3     C     0.6503     0.08     0.4
A_3     C     0.9961     0.3548     0.3806
A_3     C     0.0253     0.3218     0.0613
A_3     C     0.3423     0.8239     0.453
A_3     C     0.5351     0.7521     0.3452
A_3     C     0.7463     0.7343     0.8449
A_3     C     0.3379     0.9992     0.5788
A_3     C     0.5069     0.2991     0.9962
A_3     C     0.144     0.7912     0.4946
A_3     C     0.683     0.6897     0.6424
A_3     C     0.0302     0.5923     0.2308
A_3     C     0.8168     0.3894     0.8063
A_3     C     0.5147     0.958     0.4633
A_3     C     0.3263     0.9902     0.3898
A_3     C     0.5573     0.4953     0.9246
A_3     C     0.9573     0.8587     0.3886
A_3     C     0.2021     0.7773     0.8783
A_3     C     0.588     0.9546     0.3602
A_3     C     0.8635     0.0851     0.1322
A_3     C     0.8243     0.4181     0.4889
A_3     C     0.3324     0.3986     0.6755
A_3     C     0.4877     0.9093     0.14
A_3     C     0.0865     0.3325     0.3425
A_3     C     0.5593     0.4125     0.6788
