MAT-67

loop_
_symmetry_equiv_pos_as_xyz
  x,y,z
_cell_length_a          35.5838
_cell_length_b          22.0687
_cell_length_c          43.0498
_cell_angle_alpha       90.0000
_cell_angle_beta        90.0000
_cell_angle_gamma       90.0000
loop_
_atom_site_label
_atom_site_type_symbol
_atom_site_fract_x
_atom_site_fract_y
_atom_site_fract_z
A_3     C     0.4125     0.1429     0.104
A_0     C     0.6982     0.1768     0.4458
A_3     C     0.2805     0.3332     0.8963
A_0     C     0.0799     0.7524     0.8459
A_1     C     0.0631     0.052     0.0691
A_1     C     0.8599     0.1232     0.6495
A_3     C     0.2971     0.3954     0.411
A_3     C     0.958     0.9522     0.9721
A_3     C     0.3957     0.3651     0.3333
A_3     C     0.118     0.9034     0.9743
A_3     C     0.4323     0.5153     0.6192
A_3     C     0.2451     0.2378     0.5187
A_3     C     0.2087     0.2448     0.7623
A_3     C     0.9694     0.6976     0.0044
A_3     C     0.044     0.2774     0.2133
A_3     C     0.6704     0.7528     0.7165
A_3     C     0.4438     0.8267     0.1134
A_3     C     0.106     0.727     0.2273
A_3     C     0.1245     0.8584     0.6055
A_3     C     0.8535     0.748     0.8042
A_3     C     0.9234     0.6837     0.6703
A_3     C     0.9318     0.2178     0.6358
A_3     C     0.4316     0.406     0.9848
A_3     C     0.9555     0.0294     0.0564
A_3     C     0.4632     0.3142     0.4134
A_3     C     0.8541     0.0731     0.6998
A_3     C     0.4167     0.56     0.8293
A_3     C     0.8029     0.1405     0.8392
A_3     C     0.4063     0.156     0.6372
A_3     C     0.7839     0.037     0.56
A_3     C     0.367     0.3867     0.4015
A_3     C     0.8691     0.4505     0.3567
A_3     C     0.9592     0.8807     0.7566
A_3     C     0.6943     0.7472     0.5757
A_3     C     0.5026     0.2458     0.0102
A_3     C     0.8149     0.3553     0.4385
A_3     C     0.0371     0.5498     0.3486
A_3     C     0.4117     0.0338     0.6025
A_3     C     0.2392     0.5649     0.1709
A_3     C     0.9171     0.148     0.4183
A_3     C     0.2524     0.8957     0.0027
A_3     C     0.7413     0.1368     0.3151
A_3     C     0.4509     0.536     0.5814
A_3     C     0.1837     0.9642     0.4682
A_3     C     0.2014     0.6251     0.9898
A_3     C     0.9509     0.7282     0.1543
A_3     C     0.5833     0.6026     0.8091
A_3     C     0.2148     0.2076     0.4791
A_3     C     0.6046     0.203     0.3747
A_3     C     0.1886     0.3233     0.7326
A_3     C     0.3245     0.8287     0.0275
A_3     C     0.954     0.4603     0.9066
A_3     C     0.3456     0.4984     0.758
A_3     C     0.3081     0.7234     0.427
A_3     C     0.0155     0.4986     0.0164
A_3     C     0.0358     0.3406     0.7592
A_3     C     0.0474     0.4975     0.03
A_3     C     0.8058     0.9353     0.9397
A_3     C     0.0042     0.776     0.8693
A_3     C     0.3228     0.3128     0.2903
A_3     C     0.4489     0.2794     0.4918
A_3     C     0.5745     0.8281     0.09
A_3     C     0.7543     0.1633     0.955
A_3     C     0.8824     0.6554     0.889
A_3     C     0.0779     0.0398     0.8854
A_3     C     0.6038     0.8087     0.8977
A_3     C     0.8263     0.517     0.1126
A_3     C     0.8718     0.3431     0.1712
A_3     C     0.1654     0.5691     0.5474
A_3     C     0.6486     0.4504     0.4929
A_3     C     0.7222     0.0923     0.4208
A_3     C     0.7118     0.5033     0.0932
A_3     C     0.2546     0.5107     0.8968
A_3     C     0.5722     0.591     0.3289
A_3     C     0.3434     0.0243     0.2294
A_3     C     0.1473     0.5234     0.3567
A_3     C     0.027     0.9943     0.5676
A_3     C     0.9078     0.9681     0.6844
A_3     C     0.2193     0.543     0.0746
A_3     C     0.7235     0.9902     0.5605
A_3     C     0.3822     0.797     0.1142
A_3     C     0.6266     0.2443     0.7147
A_3     C     0.6804     0.7568     0.0989
A_3     C     0.9864     0.7833     0.5964
A_3     C     0.5258     0.695     0.4312
A_3     C     0.4403     0.3266     0.9475
A_3     C     0.8618     0.0816     0.5229
A_3     C     0.6156     0.4077     0.4057
A_3     C     0.8886     0.8483     0.2707
A_3     C     0.3822     0.2254     0.6078
A_3     C     0.2135     0.2181     0.9977
A_3     C     0.9213     0.4735     0.5947
A_3     C     0.4973     0.1343     0.5359
A_3     C     0.2597     0.1139     0.6911
A_3     C     0.336     0.2894     0.3213
A_3     C     0.0266     0.0405     0.1382
A_3     C     0.2254     0.305     0.1627
A_3     C     0.894     0.3465     0.7443
A_3     C     0.5339     0.6048     0.6628
A_3     C     0.5031     0.8776     0.7831
A_3     C     0.3733     0.3462     0.7385
A_3     C     0.4518     0.537     0.183
A_3     C     0.5661     0.0977     0.8502
A_3     C     0.5467     0.8064     0.2754
A_3     C     0.1298     0.8909     0.6336
A_3     C     0.9656     0.1405     0.6019
A_3     C     0.3341     0.5431     0.3227
A_3     C     0.7554     0.2994     0.5683
A_3     C     0.2399     0.2243     0.8985
A_3     C     0.342     0.8582     0.8145
A_3     C     0.4097     0.5361     0.4564
A_3     C     0.9605     0.4535     0.9614
A_3     C     0.5199     0.4345     0.8233
A_3     C     0.6807     0.0539     0.7393
A_3     C     0.7585     0.6449     0.7398
A_3     C     0.9207     0.4046     0.7735
A_3     C     0.0607     0.6285     0.1536
A_3     C     0.8334     0.1956     0.914
A_3     C     0.7814     0.9321     0.4123
A_3     C     0.3443     0.4677     0.6887
A_3     C     0.1518     0.1112     0.3504
A_3     C     0.5899     0.7158     0.8409
A_3     C     0.2324     0.1047     0.0276
A_3     C     0.3021     0.9799     0.0741
A_3     C     0.0523     0.5969     0.0561
A_3     C     0.0985     0.1589     0.752
A_3     C     0.8884     0.3257     0.0959
A_3     C     0.5281     0.7573     0.901
A_3     C     0.3086     0.7337     0.1802
A_3     C     0.4175     0.5932     0.5675
A_3     C     0.7424     0.2147     0.4945
A_3     C     0.9824     0.8271     0.8364
A_3     C     0.1961     0.3747     0.3538
A_3     C     0.5554     0.598     0.903
A_3     C     0.7331     0.6105     0.2864
A_3     C     0.6988     0.5418     0.3715
A_3     C     0.3538     0.9737     0.5626
A_3     C     0.7537     0.4047     0.1018
A_3     C     0.3267     0.4388     0.4058
A_3     C     0.2709     0.8383     0.8782
A_3     C     0.6641     0.6756     0.9641
A_3     C     0.6402     0.5409     0.5156
A_3     C     0.9333     0.8114     0.8696
A_3     C     0.4115     0.7337     0.9241
A_3     C     0.1492     0.1075     0.4461
A_3     C     0.1307     0.2892     0.4609
A_3     C     0.8779     0.8005     0.2351
A_3     C     0.676     0.8946     0.5481
A_3     C     0.1686     0.1032     0.5865
A_3     C     0.2676     0.8653     0.5683
A_3     C     0.1488     0.2668     0.8574
A_3     C     0.0031     0.3669     0.9314
A_3     C     0.4082     0.2169     0.2182
A_3     C     0.5455     0.9313     0.8803
A_3     C     0.4312     0.0833     0.8746
A_3     C     0.5071     0.847     0.9842
A_3     C     0.3023     0.2433     0.5581
A_3     C     0.8856     0.8224     0.8666
A_3     C     0.098     0.3499     0.9872
A_3     C     0.302     0.9949     0.5724
A_3     C     0.7495     0.3166     0.2948
A_3     C     0.2233     0.7068     0.1147
A_3     C     0.0016     0.6986     0.1143
A_3     C     0.7213     0.2784     0.3218
A_3     C     0.4345     0.1313     0.2733
A_3     C     0.3954     0.3123     0.7639
A_3     C     0.3791     0.7479     0.5787
A_3     C     0.3847     0.3449     0.5883
A_3     C     0.2345     0.7972     0.9313
A_3     C     0.7245     0.844     0.4198
A_3     C     0.9284     0.1642     0.4486
A_3     C     0.7885     0.7893     0.7927
A_3     C     0.4305     0.1737     0.2525
A_3     C     0.4773     0.3677     0.8276
A_3     C     0.2185     0.6233     0.048
A_3     C     0.3807     0.1809     0.8921
A_3     C     0.6507     0.2167     0.1953
A_3     C     0.5214     0.3418     0.6232
A_3     C     0.2695     0.2398     0.1741
A_3     C     0.3769     0.6098     0.4432
A_3     C     0.5712     0.8025     0.6329
A_3     C     0.4336     0.5945     0.2494
A_3     C     0.72     0.5191     0.238
A_3     C     0.0744     0.3258     0.2999
A_3     C     0.7936     0.1928     0.6958
A_3     C     0.7828     0.0056     0.1513
A_3     C     0.0524     0.7214     0.22
A_3     C     0.7766     0.9838     0.2136
A_3     C     0.0212     0.2221     0.8694
A_3     C     0.2047     0.0204     0.2189
A_3     C     0.7107     0.7833     0.8697
A_3     C     0.649     0.4477     0.5698
A_3     C     0.2388     0.1842     0.2382
A_3     C     0.2513     0.3826     0.3504
A_3     C     0.3495     0.3727     0.2388
A_3     C     0.6014     0.0064     0.4738
A_3     C     0.0983     0.8794     0.4466
A_3     C     0.9141     0.9596     0.2815
A_3     C     0.6342     0.0746     0.4626
A_3     C     0.1755     0.2926     0.5161
A_3     C     0.6117     0.2224     0.5654
A_3     C     0.8207     0.9214     0.214
A_3     C     0.2733     0.9097     0.3368
A_3     C     0.3369     0.1051     0.3166
A_3     C     0.3297     0.2811     0.1918
A_3     C     0.0101     0.4738     0.6919
A_3     C     0.1525     0.9639     0.249
A_3     C     0.6109     0.1203     0.0227
A_3     C     0.2574     0.4794     0.2492
A_3     C     0.0917     0.55     0.4502
A_3     C     0.5175     0.5387     0.6607
A_3     C     0.2975     0.9444     0.3642
A_3     C     0.2554     0.9606     0.7609
A_3     C     0.516     0.7185     0.7846
A_3     C     0.8123     0.8923     0.5348
A_3     C     0.9086     0.3632     0.9321
A_3     C     0.6281     0.8655     0.8377
A_3     C     0.8328     0.5667     0.6842
A_3     C     0.2782     0.159     0.9176
A_3     C     0.2135     0.0241     0.306
A_3     C     0.4061     0.7832     0.2081
A_3     C     0.9384     0.552     0.0213
A_3     C     0.8266     0.458     0.8936
A_3     C     0.6242     0.8585     0.997
A_3     C     0.0066     0.6844     0.3918
A_3     C     0.7109     0.2034     0.364
A_3     C     0.8565     0.687     0.0427
A_3     C     0.7964     0.9045     0.8736
A_3     C     0.9555     0.8067     0.0124
A_3     C     0.8458     0.7087     0.3976
A_3     C     0.6013     0.3644     0.2613
A_3     C     0.4632     0.159     0.1353
A_3     C     0.2199     0.1256     0.3655
A_3     C     0.4239     0.2331     0.5501
A_3     C     0.5862     0.2481     0.432
A_3     C     0.5399     0.5546     0.783
A_3     C     0.3962     0.2637     0.8901
A_3     C     0.0873     0.6956     0.54
A_3     C     0.0172     0.9589     0.7108
A_3     C     0.0375     0.2737     0.5617
A_3     C     0.5689     0.9668     0.6641
A_3     C     0.5914     0.4561     0.1606
A_3     C     0.6944     0.3809     0.2277
A_3     C     0.9664     0.1624     0.876
A_3     C     0.9996     0.4042     0.9868
A_3     C     0.775     0.6201     0.159
A_3     C     0.8375     0.0909     0.2052
A_3     C     0.2263     0.865     0.9394
A_3     C     0.4084     0.4717     0.9258
A_3     C     0.9616     0.0711     0.4379
A_3     C     0.5065     0.1205     0.5016
A_3     C     0.5711     0.222     0.8932
A_3     C     0.0436     0.5059     0.5663
A_3     C     0.9052     0.4097     0.465
A_3     C     0.0264     0.9673     0.5278
A_3     C     0.9907     0.1539     0.9882
A_3     C     0.8907     0.3895     0.8955
A_3     C     0.7536     0.9219     0.0472
A_3     C     0.5051     0.507     0.9577
A_3     C     0.0276     0.8407     0.046
A_3     C     0.2856     0.6427     0.2923
A_3     C     0.4823     0.7183     0.1618
A_3     C     0.5099     0.4807     0.989
A_3     C     0.8916     0.4433     0.5329
A_3     C     0.8369     0.3893     0.3647
A_3     C     0.9232     0.3975     0.9898
A_3     C     0.2521     0.1836     0.8593
A_3     C     0.0856     0.4444     0.1076
A_3     C     0.276     0.2581     0.702
A_3     C     0.6922     0.0575     0.7912
A_3     C     0.9137     0.8675     0.9972
A_3     C     0.1038     0.4968     0.2375
A_3     C     0.9986     0.8079     0.2343
A_3     C     0.2021     0.265     0.494
A_3     C     0.7143     0.8009     0.398
A_3     C     0.7636     0.0255     0.5053
A_3     C     0.2187     0.3405     0.7555
A_3     C     0.1186     0.1367     0.1268
A_3     C     0.8387     0.8618     0.4541
A_3     C     0.1617     0.9842     0.1388
A_3     C     0.5214     0.9161     0.1867
A_3     C     0.9758     0.2277     0.1989
A_3     C     0.5932     0.5253     0.6731
A_3     C     0.8376     0.1523     0.6557
A_3     C     0.2661     0.1306     0.0158
A_3     C     0.084     0.0742     0.8409
A_3     C     0.7523     0.9723     0.1138
A_3     C     0.9616     0.0049     0.095
A_3     C     0.0797     0.1907     0.8866
