MAT-41

loop_
_symmetry_equiv_pos_as_xyz
  x,y,z
_cell_length_a          22.8619
_cell_length_b          14.1145
_cell_length_c          23.5673
_cell_angle_alpha       90.0000
_cell_angle_beta        90.0000
_cell_angle_gamma       90.0000
loop_
_atom_site_label
_atom_site_type_symbol
_atom_site_fract_x
_atom_site_fract_y
_atom_site_fract_z
A_0     C     0.4326     0.2784     0.5698
A_0     C     0.2277     0.544     0.6029
A_3     C     0.392     0.9527     0.8712
A_0     C     0.8393     0.9217     0.4855
A_0     C     0.5874     0.243     0.1796
A_3     C     0.0743     0.2607     0.244
A_0     C     0.7226     0.91     0.3875
A_2     C     0.4355     0.3852     0.0665
A_3     C     0.7651     0.9906     0.5645
A_1     C     0.9449     0.0705     0.201
A_1     C     0.8758     0.7374     0.0855
A_2     C     0.0255     0.9589     0.8999
A_2     C     0.2674     0.0297     0.495
A_2     C     0.1313     0.3683     0.8146
A_0     C     0.1815     0.3408     0.049
A_3     C     0.0672     0.1055     0.748
A_1     C     0.2214     0.1578     0.9271
A_0     C     0.3191     0.8437     0.0946
A_2     C     0.4542     0.758     0.8861
A_1     C     0.1775     0.8935     0.0494
A_2     C     0.1895     0.2764     0.882
A_1     C     0.5637     0.7967     0.3749
A_3     C     0.8145     0.0081     0.1203
A_2     C     0.61     0.2567     0.9915
A_0     C     0.4397     0.2663     0.3911
A_1     C     0.6948     0.9281     0.8582
A_0     C     0.8836     0.3769     0.0223
A_2     C     0.0939     0.2829     0.7776
A_0     C     0.8304     0.6905     0.3259
A_1     C     0.9251     0.0433     0.4342
A_3     C     0.5914     0.8273     0.66
A_0     C     0.8502     0.3889     0.1037
A_3     C     0.1026     0.1045     0.1484
A_2     C     0.9865     0.2653     0.3396
A_1     C     0.1259     0.459     0.1803
A_0     C     0.249     0.7219     0.5251
A_1     C     0.2355     0.028     0.4337
A_1     C     0.4667     0.8767     0.7318
A_0     C     0.5367     0.0558     0.8749
A_0     C     0.6308     0.4482     0.1132
A_2     C     0.311     0.9318     0.0554
A_3     C     0.733     0.9073     0.3537
A_0     C     0.3363     0.1359     0.2409
A_0     C     0.9715     0.2401     0.3532
A_0     C     0.0465     0.9601     0.2695
A_2     C     0.7752     0.2743     0.5613
A_2     C     0.4892     0.8764     0.4018
A_3     C     0.2934     0.5509     0.6933
A_3     C     0.1971     0.2263     0.5324
A_0     C     0.5247     0.232     0.1369
A_2     C     0.1143     0.661     0.827
A_1     C     0.0496     0.0769     0.8396
A_1     C     0.958     0.9983     0.8112
A_3     C     0.6025     0.7673     0.2037
A_1     C     0.609     0.9793     0.183
A_2     C     0.8743     0.2665     0.1826
A_1     C     0.8049     0.2231     0.8314
A_3     C     0.1425     0.9781     0.0534
A_0     C     0.1777     0.0334     0.1561
A_2     C     0.4477     0.7663     0.2322
A_1     C     0.6729     0.1824     0.2396
A_3     C     0.5122     0.7925     0.6072
A_1     C     0.051     0.669     0.3821
A_2     C     0.0538     0.8088     0.9294
A_3     C     0.2829     0.5862     0.3083
A_1     C     0.5332     0.7927     0.3201
A_0     C     0.7052     0.3094     0.6801
A_1     C     0.6084     0.1789     0.0291
A_1     C     0.7736     0.4756     0.5576
A_2     C     0.2081     0.4848     0.4607
A_2     C     0.0469     0.2468     0.1095
A_3     C     0.739     0.9371     0.3754
A_2     C     0.7731     0.7627     0.3532
A_3     C     0.9287     0.7733     0.1106
A_1     C     0.6526     0.4822     0.5108
A_1     C     0.2819     0.7279     0.1674
A_2     C     0.8274     0.7095     0.0761
A_2     C     0.3525     0.506     0.4278
A_0     C     0.0804     0.2606     0.4827
A_3     C     0.722     0.6646     0.7273
A_3     C     0.2747     0.9634     0.0724
A_3     C     0.0776     0.7206     0.9284
A_0     C     0.4849     0.4146     0.1329
A_2     C     0.8402     0.2763     0.9686
A_1     C     0.0989     0.7171     0.3594
A_0     C     0.4471     0.2513     0.1518
A_2     C     0.4164     0.4274     0.6257
A_0     C     0.9202     0.0365     0.9205
A_0     C     0.0296     0.2716     0.465
A_0     C     0.1412     0.1542     0.8567
A_0     C     0.6015     0.1774     0.3936
A_2     C     0.4358     0.1221     0.0045
A_1     C     0.6833     0.253     0.8198
A_3     C     0.2398     0.8662     0.4073
A_3     C     0.5832     0.6495     0.4382
A_2     C     0.6237     0.7076     0.4592
A_1     C     0.1069     0.7102     0.5921
A_0     C     0.1123     0.0175     0.5167
A_3     C     0.8754     0.7938     0.4433
A_2     C     0.9725     0.1859     0.1401
A_3     C     0.9064     0.9811     0.1843
A_2     C     0.7774     0.8871     0.4121
A_1     C     0.726     0.0599     0.2885
A_3     C     0.6143     0.6571     0.9777
A_3     C     0.1221     0.9514     0.6623
A_0     C     0.3507     0.1983     0.9388
A_3     C     0.713     0.3456     0.4497
A_3     C     0.0959     0.0881     0.6921
A_2     C     0.5805     0.6661     0.4182
A_2     C     0.391     0.1903     0.2447
A_1     C     0.745     0.0357     0.7846
A_1     C     0.2731     0.6504     0.4686
A_3     C     0.7952     0.8198     0.7991
A_3     C     0.5906     0.0815     0.9854
A_1     C     0.2402     0.1412     0.5081
A_3     C     0.9803     0.854     0.3703
A_1     C     0.2387     0.0306     0.5713
A_1     C     0.7548     0.5463     0.4387
A_2     C     0.873     0.9581     0.3399
A_0     C     0.5327     0.9785     0.9466
A_1     C     0.6492     0.9779     0.5534
A_3     C     0.6416     0.2331     0.7925
A_0     C     0.5665     0.8272     0.7139
A_0     C     0.2816     0.1397     0.6233
A_0     C     0.7622     0.8839     0.8597
A_3     C     0.5957     0.4877     0.1954
A_3     C     0.5513     0.0222     0.5579
A_3     C     0.9966     0.6195     0.5497
A_1     C     0.6796     0.9792     0.3624
A_3     C     0.517     0.221     0.7392
A_1     C     0.3162     0.0429     0.4679
A_3     C     0.425     0.9224     0.7191
A_0     C     0.8458     0.1756     0.0209
A_0     C     0.0592     0.1113     0.3381
A_3     C     0.3415     0.941     0.0441
A_2     C     0.8313     0.2129     0.5137
A_1     C     0.4046     0.3818     0.6925
A_2     C     0.6684     0.9316     0.9833
A_1     C     0.872     0.5231     0.5371
A_3     C     0.8993     0.3884     0.5916
A_1     C     0.8648     0.0916     0.0394
A_2     C     0.3855     0.3815     0.1937
A_3     C     0.5947     0.4871     0.7229
A_2     C     0.7701     0.2231     0.583
A_3     C     0.5866     0.9905     0.1747
A_1     C     0.8268     0.6755     0.2041
A_1     C     0.3432     0.552     0.3109
A_3     C     0.3257     0.8829     0.341
A_2     C     0.2027     0.7268     0.5689
A_0     C     0.4207     0.9011     0.7366
A_2     C     0.5629     0.7198     0.1522
A_3     C     0.8845     0.8012     0.708
A_1     C     0.9826     0.5502     0.6556
A_0     C     0.7985     0.3739     0.1198
A_0     C     0.1718     0.6201     0.0474
A_3     C     0.7773     0.9232     0.1157
A_1     C     0.7533     0.5781     0.6918
A_2     C     0.8997     0.863     0.8938
A_2     C     0.8025     0.3914     0.7229
A_0     C     0.0827     0.2852     0.7302
A_1     C     0.5813     0.0079     0.4889
A_0     C     0.7598     0.3726     0.0064
A_1     C     0.7817     0.1888     0.574
A_1     C     0.5616     0.9749     0.2884
A_3     C     0.13     0.6699     0.5684
A_2     C     0.0628     0.4468     0.9248
A_0     C     0.3171     0.7207     0.2959
A_2     C     0.4399     0.1676     0.0869
A_3     C     0.1985     0.3554     0.2895
A_0     C     0.1626     0.867     0.8096
A_3     C     0.2896     0.0449     0.5959
A_1     C     0.3871     0.2415     0.7145
A_3     C     0.2216     0.6354     0.6072
A_2     C     0.9212     0.6842     0.8924
A_0     C     0.8762     0.0155     0.4431
A_0     C     0.7913     0.5273     0.3819
A_2     C     0.5148     0.9743     0.8734
A_2     C     0.8107     0.8731     0.6619
A_2     C     0.1649     0.2024     0.6969
A_0     C     0.7472     0.9428     0.1168
A_1     C     0.2045     0.8253     0.7921
A_3     C     0.3257     0.718     0.9622
A_1     C     0.5299     0.6243     0.6396
A_0     C     0.2617     0.1405     0.6346
A_2     C     0.5437     0.218     0.59
A_1     C     0.8798     0.7796     0.4763
A_0     C     0.3435     0.4719     0.2068
A_2     C     0.4997     0.7012     0.8043
A_2     C     0.0179     0.4214     0.4883
A_0     C     0.6719     0.9648     0.5861
A_3     C     0.2389     0.8175     0.9877
A_2     C     0.9455     0.4463     0.3941
A_1     C     0.4339     0.9506     0.8292
A_1     C     0.898     0.0901     0.2161
A_3     C     0.8269     0.9402     0.4203
A_0     C     0.6737     0.5893     0.5009
A_3     C     0.4487     0.3953     0.52
A_1     C     0.5643     0.4465     0.8002
A_2     C     0.1399     0.4495     0.233
A_0     C     0.805     0.1131     0.7967
A_3     C     0.7677     0.7801     0.6416
A_1     C     0.9768     0.0717     0.0578
A_3     C     0.4711     0.6765     0.1522
A_0     C     0.8408     0.4842     0.5823
A_3     C     0.5896     0.6627     0.6016
A_3     C     0.4114     0.1618     0.333
A_0     C     0.0808     0.3294     0.3792
A_3     C     0.6618     0.0709     0.447
A_0     C     0.1397     0.0372     0.8922
A_0     C     0.6683     0.1775     0.2699
A_1     C     0.0183     0.3086     0.7573
A_2     C     0.0251     0.3663     0.2553
A_1     C     0.815     0.3393     0.6728
A_3     C     0.3887     0.7181     0.6153
A_3     C     0.4099     0.6117     0.1304
A_1     C     0.7703     0.6956     0.9172
A_3     C     0.8991     0.7216     0.2296
A_0     C     0.2913     0.8244     0.0382
A_3     C     0.5305     0.6901     0.5924
A_0     C     0.1533     0.7037     0.8151
A_3     C     0.6468     0.6084     0.2272
A_3     C     0.4505     0.1124     0.5345
A_0     C     0.3342     0.841     0.913
A_2     C     0.0399     0.6384     0.607
A_0     C     0.1028     0.1356     0.8293
A_0     C     0.3662     0.859     0.625
A_0     C     0.4884     0.1998     0.7881
A_2     C     0.2887     0.8513     0.8056
A_1     C     0.7405     0.1762     0.3255
A_3     C     0.2265     0.1819     0.6353
A_1     C     0.339     0.2872     0.6125
A_1     C     0.2638     0.858     0.3858
A_2     C     0.4612     0.9701     0.0189
A_3     C     0.2648     0.2103     0.1835
A_1     C     0.716     0.7593     0.0056
A_1     C     0.7194     0.4104     0.0492
A_0     C     0.8733     0.6282     0.5159
A_3     C     0.8571     0.6927     0.1243
A_0     C     0.7823     0.306     0.8949
A_3     C     0.0567     0.9834     0.2317
A_1     C     0.4043     0.6474     0.2909
A_3     C     0.8015     0.8746     0.5082
A_0     C     0.0032     0.1148     0.0542
A_0     C     0.3155     0.8889     0.8136
A_2     C     0.3065     0.8449     0.8249
A_2     C     0.1488     0.3747     0.6167
A_1     C     0.0866     0.1578     0.5316
A_1     C     0.7458     0.9045     0.2869
A_0     C     0.9414     0.6338     0.6857
A_3     C     0.8796     0.5044     0.8626
A_0     C     0.8656     0.1521     0.6275
A_2     C     0.3957     0.1766     0.598
A_2     C     0.8524     0.6422     0.7325
A_2     C     0.1794     0.909     0.4647
A_3     C     0.4953     0.6217     0.6104
A_3     C     0.2354     0.6248     0.4355
A_2     C     0.0639     0.6357     0.1161
A_3     C     0.6178     0.4385     0.4493
A_2     C     0.4379     0.6492     0.5307
A_1     C     0.9986     0.4638     0.0747
A_3     C     0.6066     0.4101     0.7317
A_3     C     0.4156     0.0284     0.3181
A_3     C     0.8167     0.5046     0.7646
A_3     C     0.2216     0.0802     0.8513
A_1     C     0.6569     0.8742     0.0303
A_2     C     0.4916     0.0497     0.9058
A_3     C     0.8169     0.9133     0.3037
A_2     C     0.7179     0.7532     0.2055
A_0     C     0.9266     0.6986     0.9824
A_0     C     0.2558     0.0975     0.2004
A_3     C     0.3261     0.9997     0.1389
A_2     C     0.3013     0.5901     0.3065
A_0     C     0.2142     0.5382     0.5834
A_2     C     0.69     0.6201     0.3032
A_1     C     0.395     0.7338     0.0113
A_1     C     0.763     0.9935     0.6684
A_1     C     0.2973     0.1433     0.7986
A_2     C     0.9798     0.6697     0.4644
A_3     C     0.647     0.2069     0.1017
A_1     C     0.5431     0.2373     0.0667
A_3     C     0.7222     0.3857     0.8954
A_3     C     0.2075     0.1786     0.1144
A_1     C     0.8001     0.6177     0.1468
A_1     C     0.446     0.5663     0.352
A_2     C     0.2338     0.5158     0.5166
A_0     C     0.6926     0.6655     0.2926
A_1     C     0.5183     0.8722     0.5567
A_2     C     0.3941     0.0177     0.3031
A_3     C     0.438     0.7392     0.5236
A_1     C     0.6333     0.5285     0.9014
A_0     C     0.7926     0.3005     0.0097
A_3     C     0.6104     0.1831     0.2735
A_1     C     0.8502     0.6838     0.9574
A_2     C     0.9305     0.725     0.1752
A_2     C     0.7675     0.7757     0.238
A_3     C     0.1877     0.2877     0.8601
A_1     C     0.5339     0.1245     0.1127
A_2     C     0.178     0.8696     0.4467
A_3     C     0.3408     0.8154     0.4328
A_1     C     0.0337     0.4515     0.3472
A_0     C     0.2813     0.3962     0.9589
A_2     C     0.3299     0.7252     0.8382
A_0     C     0.3983     0.0299     0.7163
A_3     C     0.9946     0.0038     0.3748
A_2     C     0.5121     0.7385     0.2225
A_0     C     0.5835     0.7639     0.5621
A_1     C     0.925     0.3433     0.4036
A_0     C     0.3325     0.7916     0.6688
A_1     C     0.9151     0.5866     0.6344
A_1     C     0.0669     0.641     0.7239
A_2     C     0.4281     0.024     0.5144
A_0     C     0.6568     0.5019     0.0416
A_2     C     0.1348     0.8001     0.3487
A_1     C     0.5566     0.8581     0.3239
A_0     C     0.8461     0.5463     0.0703
A_3     C     0.9639     0.3502     0.9326
A_3     C     0.4305     0.0848     0.9019
A_3     C     0.6747     0.3627     0.4223
A_0     C     0.3398     0.7718     0.819
A_3     C     0.6623     0.7408     0.6762
A_0     C     0.4598     0.3109     0.7359
A_1     C     0.1907     0.993     0.5343
A_3     C     0.7515     0.1737     0.619
A_1     C     0.0526     0.8282     0.3642
A_3     C     0.2257     0.8999     0.8046
A_3     C     0.5982     0.6138     0.0811
A_2     C     0.0083     0.1068     0.2903
A_1     C     0.5746     0.2157     0.0344
A_3     C     0.1444     0.0883     0.8617
A_3     C     0.7428     0.4677     0.7771
A_3     C     0.4767     0.136     0.9422
A_0     C     0.0722     0.6891     0.8349
A_0     C     0.5216     0.0211     0.8121
A_3     C     0.6337     0.4432     0.763
A_2     C     0.2262     0.6562     0.3405
A_3     C     0.1768     0.416     0.0787
A_1     C     0.3488     0.1643     0.2257
A_1     C     0.1076     0.1588     0.4619
A_3     C     0.244     0.8085     0.8831
A_0     C     0.7189     0.2972     0.5653
A_1     C     0.9779     0.52     0.6964
A_1     C     0.4763     0.8671     0.6959
A_3     C     0.6446     0.207     0.537
A_3     C     0.0642     0.4717     0.7596
A_2     C     0.3961     0.7522     0.7254
A_0     C     0.9942     0.1951     0.4889
A_0     C     0.5042     0.7362     0.4184
A_1     C     0.584     0.2598     0.8832
A_0     C     0.6574     0.7312     0.5918
A_2     C     0.6574     0.5287     0.5511
A_0     C     0.8683     0.4963     0.6557
A_3     C     0.8526     0.337     0.2608
A_3     C     0.4561     0.2694     0.3374
A_0     C     0.8102     0.8388     0.1044
A_0     C     0.2084     0.3482     0.5573
A_1     C     0.541     0.322     0.5884
A_1     C     0.7328     0.2437     0.1038
A_2     C     0.67     0.6668     0.1655
A_1     C     0.2435     0.7067     0.7652
A_0     C     0.3402     0.3468     0.7955
A_3     C     0.4519     0.8289     0.9453
A_0     C     0.7776     0.7324     0.373
A_0     C     0.2424     0.5436     0.5182
A_3     C     0.6602     0.8456     0.8892
A_1     C     0.1554     0.4981     0.826
A_0     C     0.3814     0.2979     0.7224
A_1     C     0.2559     0.7346     0.2805
A_0     C     0.9959     0.3392     0.9012
A_1     C     0.1744     0.4965     0.8686
A_3     C     0.4193     0.1102     0.9118
A_3     C     0.1472     0.5714     0.0609
A_3     C     0.8347     0.9283     0.5193
A_2     C     0.7864     0.4439     0.757
A_0     C     0.5008     0.696     0.4977
A_3     C     0.8504     0.7167     0.426
A_0     C     0.0881     0.6587     0.1431
A_2     C     0.569     0.0693     0.3897
A_3     C     0.9637     0.9248     0.1366
A_2     C     0.3065     0.3358     0.4048
A_3     C     0.9025     0.9723     0.0738
A_0     C     0.0576     0.3714     0.5589
A_0     C     0.9728     0.034     0.3046
A_0     C     0.0846     0.4387     0.9067
A_1     C     0.0156     0.987     0.299
A_3     C     0.6135     0.3725     0.3738
A_1     C     0.4056     0.5434     0.5673
A_3     C     0.6542     0.1491     0.8796
A_0     C     0.8578     0.1264     0.1647
A_2     C     0.7231     0.0887     0.5274
A_0     C     0.3303     0.3693     0.2569
A_1     C     0.6566     0.1131     0.5142
A_3     C     0.2644     0.239     0.8205
A_3     C     0.0827     0.2266     0.4667
A_2     C     0.7421     0.6617     0.9507
A_0     C     0.0469     0.5247     0.5535
A_0     C     0.7609     0.7071     0.2995
A_1     C     0.2562     0.3433     0.0535
A_3     C     0.732     0.5106     0.1222
A_2     C     0.2175     0.9922     0.3183
A_2     C     0.8993     0.9944     0.163
A_3     C     0.7706     0.6422     0.0557
A_1     C     0.0962     0.7748     0.6383
A_3     C     0.0977     0.0412     0.536
A_1     C     0.2029     0.3654     0.9892
A_3     C     0.037     0.4363     0.3083
A_0     C     0.1501     0.7518     0.4828
A_3     C     0.8813     0.5295     0.0984
A_3     C     0.8598     0.3382     0.348
A_3     C     0.3705     0.0235     0.9386
A_2     C     0.0018     0.7867     0.7357
A_1     C     0.4577     0.6139     0.4152
A_2     C     0.3954     0.5365     0.9937
A_3     C     0.1572     0.2849     0.9543
A_1     C     0.9029     0.0116     0.436
A_2     C     0.4203     0.1466     0.773
A_2     C     0.6635     0.1751     0.3276
A_1     C     0.1621     0.7518     0.7748
A_0     C     0.2107     0.21     0.5395
A_3     C     0.644     0.9001     0.962
A_2     C     0.2651     0.3846     0.552
A_0     C     0.0146     0.5568     0.6737
A_0     C     0.4238     0.9663     0.6067
A_3     C     0.4163     0.52     0.0212
A_3     C     0.7649     0.6196     0.258
A_3     C     0.5187     0.5718     0.0658
A_3     C     0.3391     0.3967     0.4689
A_0     C     0.2578     0.3408     0.7952
A_1     C     0.6193     0.7702     0.9996
A_2     C     0.9137     0.0515     0.8204
A_3     C     0.7523     0.561     0.0357
A_1     C     0.1917     0.3302     0.6144
A_1     C     0.4024     0.3391     0.9448
A_0     C     0.1525     0.4039     0.5435
A_2     C     0.9144     0.6141     0.5313
A_0     C     0.4767     0.5871     0.2005
A_1     C     0.4646     0.2103     0.3467
A_2     C     0.6886     0.2855     0.0944
A_3     C     0.8242     0.4554     0.4274
A_3     C     0.5776     0.0473     0.6646
A_0     C     0.7845     0.4287     0.1419
A_2     C     0.3032     0.4093     0.6195
A_3     C     0.6097     0.1524     0.6909
A_1     C     0.4189     0.6564     0.7036
A_3     C     0.594     0.1263     0.1966
A_2     C     0.6303     0.9082     0.8738
A_2     C     0.3754     0.8506     0.367
A_2     C     0.156     0.6231     0.9419
A_2     C     0.4345     0.8108     0.7032
A_1     C     0.4841     0.5462     0.8624
A_3     C     0.1655     0.0135     0.0603
A_1     C     0.0268     0.4949     0.3094
A_2     C     0.8821     0.7406     0.8564
A_0     C     0.1001     0.0767     0.5211
A_1     C     0.3599     0.8029     0.9242
A_1     C     0.006     0.8388     0.4996
A_0     C     0.3389     0.4924     0.5601
A_3     C     0.5872     0.5887     0.2018
A_0     C     0.7274     0.2348     0.438
A_3     C     0.4719     0.7547     0.8771
A_3     C     0.259     0.0427     0.8261
A_0     C     0.3797     0.513     0.6339
A_2     C     0.2198     0.9966     0.3705
A_0     C     0.4514     0.2343     0.6617
A_0     C     0.7724     0.6914     0.7116
A_0     C     0.0069     0.8042     0.5249
A_1     C     0.3635     0.5663     0.1753
A_1     C     0.6115     0.2632     0.0318
A_2     C     0.2307     0.7712     0.0955
A_1     C     0.8214     0.7889     0.2134
A_1     C     0.5683     0.0329     0.4775
A_1     C     0.613     0.6219     0.9062
A_3     C     0.9892     0.4895     0.7077
A_2     C     0.0924     0.5739     0.8126
A_3     C     0.5725     0.8205     0.5732
A_1     C     0.2805     0.6128     0.274
A_0     C     0.4981     0.6352     0.0508
A_3     C     0.9186     0.7296     0.0354
A_2     C     0.67     0.5397     0.9539
A_3     C     0.9306     0.4849     0.2665
A_0     C     0.5476     0.8504     0.9329
A_3     C     0.0516     0.7582     0.7374
A_0     C     0.5746     0.9019     0.0536
A_3     C     0.6211     0.5977     0.8917
A_2     C     0.026     0.8348     0.8435
A_0     C     0.0858     0.449     0.4842
A_2     C     0.2211     0.6533     0.5672
A_2     C     0.503     0.0224     0.0645
A_2     C     0.063     0.5567     0.2305
A_3     C     0.1324     0.074     0.8754
A_3     C     0.3849     0.7205     0.0699
A_2     C     0.7434     0.4904     0.3484
A_2     C     0.403     0.5732     0.8203
A_2     C     0.1985     0.5587     0.3699
A_0     C     0.9614     0.3514     0.6065
A_0     C     0.475     0.7546     0.4285
A_1     C     0.1652     0.557     0.2593
A_3     C     0.8405     0.4217     0.3555
A_3     C     0.0921     0.8218     0.9615
A_2     C     0.8925     0.4182     0.1865
A_1     C     0.2509     0.5458     0.3903
A_0     C     0.5848     0.4813     0.4969
A_1     C     0.5547     0.4139     0.4401
A_2     C     0.2423     0.4913     0.8751
A_0     C     0.9715     0.8624     0.3872
A_0     C     0.8488     0.0961     0.2003
A_0     C     0.3152     0.248     0.4888
A_3     C     0.5419     0.417     0.2445
A_0     C     0.521     0.2174     0.8729
A_1     C     0.4732     0.0801     0.3646
A_0     C     0.0033     0.7838     0.7886
A_3     C     0.7484     0.1166     0.7066
A_2     C     0.1918     0.1618     0.9009
A_0     C     0.5175     0.9004     0.522
A_2     C     0.1563     0.7931     0.6906
A_3     C     0.3429     0.0449     0.6025
