MAT-61

loop_
_symmetry_equiv_pos_as_xyz
  x,y,z
_cell_length_a          39.3797
_cell_length_b          46.2317
_cell_length_c          31.2448
_cell_angle_alpha       90.0000
_cell_angle_beta        90.0000
_cell_angle_gamma       90.0000
loop_
_atom_site_label
_atom_site_type_symbol
_atom_site_fract_x
_atom_site_fract_y
_atom_site_fract_z
A_1     C     0.7676     0.4053     0.9237
A_3     C     0.7547     0.4708     0.5358
A_0     C     0.003     0.9494     0.8714
A_2     C     0.2354     0.3936     0.527
A_0     C     0.4184     0.328     0.0634
A_3     C     0.1754     0.0836     0.5347
A_2     C     0.4692     0.5453     0.0842
A_3     C     0.515     0.9887     0.6518
A_3     C     0.0193     0.9465     0.5452
A_2     C     0.7679     0.5314     0.5193
A_3     C     0.8359     0.6191     0.9699
A_2     C     0.7736     0.8909     0.6656
A_3     C     0.7004     0.4693     0.0126
A_2     C     0.5912     0.9246     0.7988
A_3     C     0.5357     0.8392     0.9339
A_0     C     0.7742     0.0572     0.8667
A_3     C     0.9579     0.4346     0.6029
A_3     C     0.7154     0.0329     0.287
A_3     C     0.5119     0.311     0.8775
A_1     C     0.8169     0.6056     0.6834
A_1     C     0.0187     0.2723     0.4774
A_1     C     0.9095     0.6956     0.2454
A_2     C     0.4856     0.8242     0.0605
A_2     C     0.5102     0.6944     0.6006
A_1     C     0.6078     0.4634     0.3307
A_3     C     0.3198     0.3759     0.7228
A_3     C     0.4009     0.691     0.6659
A_2     C     0.5458     0.3796     0.4551
A_1     C     0.0853     0.0998     0.2703
A_3     C     0.0969     0.8905     0.3546
A_1     C     0.1822     0.6045     0.7515
A_0     C     0.6746     0.6493     0.147
A_2     C     0.752     0.6794     0.3838
A_3     C     0.9909     0.5176     0.1317
A_3     C     0.6848     0.5538     0.8676
A_3     C     0.608     0.7541     0.1947
A_3     C     0.2861     0.7424     0.8845
A_2     C     0.4865     0.7703     0.6135
A_3     C     0.9811     0.6795     0.0674
A_3     C     0.0518     0.751     0.7578
A_1     C     0.7002     0.0389     0.4555
A_2     C     0.5613     0.0225     0.4169
A_2     C     0.2524     0.9843     0.7653
A_0     C     0.8486     0.2365     0.4331
A_3     C     0.724     0.5536     0.3522
A_2     C     0.1945     0.0107     0.9045
A_0     C     0.7009     0.1508     0.6323
A_2     C     0.497     0.3568     0.8755
A_3     C     0.3296     0.651     0.4439
A_3     C     0.8014     0.2604     0.2165
A_2     C     0.0052     0.331     0.254
A_2     C     0.1941     0.0247     0.3189
A_2     C     0.8516     0.5469     0.0491
A_3     C     0.5658     0.0343     0.8293
A_0     C     0.2667     0.9761     0.6145
A_1     C     0.4608     0.1226     0.2351
A_1     C     0.9322     0.1812     0.4989
A_1     C     0.5402     0.6297     0.073
A_3     C     0.9769     0.9526     0.1733
A_2     C     0.2639     0.5011     0.3828
A_1     C     0.9251     0.2808     0.8418
A_3     C     0.0225     0.2993     0.8166
A_2     C     0.6338     0.0016     0.8652
A_0     C     0.2553     0.9063     0.6323
A_0     C     0.0893     0.2414     0.1969
A_3     C     0.635     0.0931     0.832
A_0     C     0.2332     0.5284     0.1954
A_0     C     0.7787     0.0956     0.0075
A_0     C     0.6594     0.6125     0.4576
A_0     C     0.3222     0.4621     0.878
A_3     C     0.4394     0.8949     0.8843
A_2     C     0.1953     0.3129     0.6801
A_1     C     0.1925     0.0252     0.5239
A_3     C     0.4653     0.3926     0.5104
A_3     C     0.3594     0.4301     0.9365
A_1     C     0.2864     0.6624     0.7369
A_3     C     0.8041     0.2467     0.0862
A_0     C     0.1126     0.4505     0.2463
A_1     C     0.1886     0.8595     0.4635
A_1     C     0.8101     0.8963     0.9512
A_2     C     0.6528     0.8772     0.5736
A_1     C     0.0196     0.8554     0.796
A_2     C     0.4718     0.237     0.1994
A_2     C     0.5703     0.4913     0.9355
A_0     C     0.4219     0.6609     0.1491
A_1     C     0.6469     0.0005     0.6339
A_2     C     0.5371     0.7258     0.4514
A_3     C     0.0371     0.161     0.231
A_3     C     0.3932     0.4815     0.213
A_1     C     0.0049     0.7858     0.9037
A_2     C     0.9657     0.9402     0.3943
A_1     C     0.2347     0.9721     0.6617
A_2     C     0.5572     0.6176     0.7316
A_2     C     0.0495     0.9188     0.5548
A_2     C     0.7355     0.0071     0.2127
A_3     C     0.2164     0.5195     0.0415
A_2     C     0.4014     0.0751     0.0378
A_1     C     0.5768     0.2421     0.1181
A_1     C     0.8622     0.8099     0.4551
A_1     C     0.8249     0.033     0.2336
A_1     C     0.5425     0.7195     0.8143
A_3     C     0.9101     0.7932     0.0035
A_3     C     0.8545     0.5459     0.4272
A_3     C     0.157     0.0591     0.9732
A_0     C     0.9569     0.5673     0.0624
A_1     C     0.156     0.0838     0.3254
A_3     C     0.5176     0.4193     0.8612
A_3     C     0.7301     0.8316     0.869
A_0     C     0.6612     0.2672     0.3627
A_0     C     0.3643     0.8266     0.4765
A_1     C     0.9054     0.0757     0.8199
A_2     C     0.4034     0.3535     0.2599
A_0     C     0.4299     0.159     0.329
A_1     C     0.0574     0.8473     0.6784
A_1     C     0.3264     0.217     0.3806
A_1     C     0.8202     0.3153     0.6274
A_1     C     0.2514     0.9918     0.931
A_2     C     0.5319     0.9312     0.9234
A_3     C     0.9421     0.8969     0.4857
A_3     C     0.9785     0.685     0.6623
A_3     C     0.6026     0.4476     0.7129
A_2     C     0.2456     0.3725     0.1736
A_0     C     0.0818     0.9752     0.1347
A_3     C     0.5476     0.9474     0.1198
A_2     C     0.1396     0.5436     0.6419
A_0     C     0.2772     0.8084     0.4401
A_1     C     0.0556     0.0675     0.26
A_2     C     0.845     0.4631     0.9605
A_1     C     0.6568     0.2429     0.1992
A_1     C     0.2113     0.8144     0.4808
A_3     C     0.1697     0.2043     0.4597
A_0     C     0.9983     0.8815     0.5444
A_3     C     0.7565     0.8097     0.8166
A_0     C     0.0202     0.9196     0.9452
A_2     C     0.6789     0.6164     0.3595
A_1     C     0.0201     0.9701     0.4959
A_1     C     0.5442     0.1532     0.0595
A_0     C     0.9371     0.4712     0.1471
A_2     C     0.1111     0.8577     0.7442
A_2     C     0.2419     0.0823     0.1617
A_0     C     0.0873     0.3853     0.5938
A_0     C     0.5014     0.4047     0.8332
A_0     C     0.8018     0.2121     0.9909
A_2     C     0.601     0.9233     0.5595
A_2     C     0.4044     0.1915     0.6427
A_2     C     0.711     0.4011     0.8117
A_2     C     0.2032     0.7984     0.9461
A_1     C     0.0837     0.1     0.715
A_3     C     0.0542     0.4442     0.7213
A_2     C     0.4101     0.1335     0.5079
A_0     C     0.3247     0.9365     0.5242
A_3     C     0.9269     0.4694     0.991
A_1     C     0.7165     0.8684     0.6336
A_0     C     0.8062     0.1784     0.9266
A_3     C     0.9177     0.8262     0.5881
A_2     C     0.8408     0.9254     0.1793
A_3     C     0.4461     0.5833     0.4847
A_2     C     0.8168     0.324     0.6369
A_0     C     0.1935     0.7002     0.8537
A_1     C     0.4987     0.799     0.293
A_0     C     0.6288     0.7041     0.9608
A_2     C     0.0158     0.5077     0.0965
A_3     C     0.1841     0.402     0.4581
A_3     C     0.9502     0.7365     0.5699
A_0     C     0.9039     0.096     0.6118
A_0     C     0.62     0.2639     0.0021
A_3     C     0.6318     0.2694     0.6532
A_0     C     0.4107     0.4897     0.6306
A_2     C     0.6386     0.6113     0.2453
A_0     C     0.2591     0.9528     0.0755
A_2     C     0.0299     0.5963     0.8152
A_2     C     0.0846     0.7027     0.0192
A_0     C     0.3865     0.9381     0.2431
A_1     C     0.6809     0.0934     0.2666
A_0     C     0.7166     0.5788     0.2782
A_0     C     0.3055     0.2434     0.016
A_1     C     0.2597     0.6778     0.4687
A_3     C     0.5883     0.5705     0.584
A_0     C     0.3778     0.4431     0.6493
A_1     C     0.7476     0.921     0.6426
A_0     C     0.5267     0.0645     0.8841
A_0     C     0.0712     0.1149     0.324
A_2     C     0.7049     0.5154     0.378
A_1     C     0.733     0.8957     0.9778
A_1     C     0.4421     0.0887     0.1005
A_1     C     0.2938     0.2546     0.8816
A_3     C     0.9094     0.6812     0.6304
A_0     C     0.8549     0.304     0.9528
A_2     C     0.2017     0.1996     0.5978
A_1     C     0.9889     0.7617     0.3907
A_0     C     0.6881     0.4089     0.655
A_2     C     0.6725     0.5378     0.7418
A_3     C     0.9605     0.5502     0.532
A_3     C     0.3668     0.1641     0.0267
A_0     C     0.7059     0.0508     0.3371
A_0     C     0.072     0.2999     0.6741
A_2     C     0.8004     0.2374     0.4726
A_1     C     0.2249     0.5236     0.7229
A_0     C     0.0572     0.7542     0.9306
A_1     C     0.0532     0.6343     0.9012
A_3     C     0.6248     0.5261     0.2659
A_0     C     0.2113     0.8611     0.078
A_0     C     0.9722     0.3886     0.7393
A_2     C     0.3633     0.948     0.6707
A_1     C     0.7386     0.6508     0.8596
A_3     C     0.3552     0.1081     0.1792
A_2     C     0.4183     0.8236     0.3392
A_1     C     0.289     0.8891     0.4359
A_3     C     0.3287     0.4086     0.7397
A_0     C     0.0967     0.6527     0.3796
A_3     C     0.7757     0.9657     0.8123
A_2     C     0.58     0.8649     0.0654
A_2     C     0.0008     0.1894     0.5073
A_2     C     0.3714     0.8469     0.1536
A_1     C     0.3192     0.6375     0.0039
A_3     C     0.7041     0.5732     0.319
A_1     C     0.0889     0.3052     0.9059
A_2     C     0.4039     0.809     0.8493
A_3     C     0.2445     0.3929     0.0131
A_3     C     0.3246     0.2262     0.1546
A_1     C     0.5213     0.5202     0.0326
A_2     C     0.9874     0.9568     0.1744
A_1     C     0.046     0.2874     0.7774
A_0     C     0.4456     0.3752     0.0258
A_2     C     0.3331     0.6039     0.3479
A_1     C     0.5041     0.5155     0.0215
A_1     C     0.1581     0.0959     0.1753
A_3     C     0.3267     0.8524     0.5415
A_0     C     0.9418     0.5462     0.9043
A_3     C     0.3036     0.6703     0.0043
A_2     C     0.0627     0.1149     0.0039
A_0     C     0.1118     0.3681     0.4088
A_3     C     0.6124     0.2355     0.3538
A_0     C     0.7172     0.3732     0.3881
A_2     C     0.2022     0.4555     0.5139
A_3     C     0.4897     0.9001     0.3231
A_0     C     0.12     0.7744     0.9902
A_1     C     0.6497     0.0084     0.9574
A_2     C     0.5427     0.9376     0.4932
A_1     C     0.3965     0.0907     0.1193
A_2     C     0.9667     0.7763     0.7573
A_1     C     0.1937     0.4253     0.8819
A_2     C     0.3119     0.5527     0.4962
A_0     C     0.2311     0.7452     0.658
A_2     C     0.0263     0.1531     0.5795
A_0     C     0.8827     0.7782     0.8763
A_3     C     0.8085     0.7698     0.6138
A_0     C     0.8963     0.474     0.8654
A_1     C     0.0163     0.3925     0.4287
A_0     C     0.0567     0.3309     0.0749
A_1     C     0.0146     0.749     0.4241
A_1     C     0.2209     0.5095     0.6556
A_3     C     0.5995     0.0379     0.8005
A_0     C     0.0508     0.1738     0.2438
A_1     C     0.9896     0.6859     0.3342
A_3     C     0.4655     0.022     0.1149
A_2     C     0.9048     0.0195     0.8927
A_2     C     0.3261     0.2376     0.6059
A_1     C     0.8481     0.7843     0.5515
A_2     C     0.1495     0.3324     0.0778
A_3     C     0.5164     0.2987     0.4854
A_0     C     0.6098     0.5405     0.4068
A_2     C     0.3905     0.4918     0.9056
A_2     C     0.664     0.9386     0.1744
A_1     C     0.0067     0.7519     0.5606
A_3     C     0.0964     0.367     0.3771
A_2     C     0.4678     0.9697     0.1567
A_3     C     0.5946     0.3779     0.8109
A_0     C     0.9371     0.5034     0.4006
A_3     C     0.793     0.773     0.4033
A_3     C     0.2969     0.5301     0.9424
A_0     C     0.8645     0.5424     0.4613
A_0     C     0.8431     0.3622     0.4513
A_2     C     0.989     0.809     0.8121
A_3     C     0.0895     0.979     0.1506
A_3     C     0.0777     0.6702     0.3775
A_2     C     0.5564     0.1046     0.0809
A_2     C     0.9776     0.9006     0.8287
A_0     C     0.8738     0.5126     0.3906
A_2     C     0.1868     0.6203     0.2612
A_2     C     0.4377     0.8415     0.4956
A_1     C     0.3144     0.4713     0.8653
A_1     C     0.9866     0.4434     0.6152
A_3     C     0.5549     0.7811     0.0062
A_0     C     0.259     0.5581     0.8075
A_0     C     0.6017     0.9476     0.7911
A_3     C     0.0989     0.3643     0.0233
A_1     C     0.5437     0.9227     0.9619
A_3     C     0.0994     0.5521     0.0685
A_2     C     0.1538     0.7992     0.4055
A_2     C     0.9778     0.9873     0.309
A_3     C     0.776     0.0854     0.1093
A_0     C     0.8142     0.6577     0.5643
A_3     C     0.047     0.7814     0.8371
A_3     C     0.5048     0.387     0.598
A_0     C     0.9474     0.6146     0.996
A_0     C     0.3175     0.0335     0.9914
A_3     C     0.4967     0.5184     0.107
A_0     C     0.8788     0.99     0.3681
A_2     C     0.9477     0.7634     0.5724
A_3     C     0.0205     0.2227     0.757
A_2     C     0.48     0.3359     0.3267
A_2     C     0.3312     0.7921     0.9442
A_1     C     0.5957     0.9788     0.4078
A_3     C     0.947     0.8437     0.3417
A_2     C     0.3264     0.4336     0.9178
A_2     C     0.1788     0.5594     0.9517
A_2     C     0.1796     0.3649     0.362
A_2     C     0.5295     0.8665     0.4264
A_2     C     0.5941     0.6765     0.2521
A_2     C     0.2457     0.2603     0.6142
A_2     C     0.8928     0.3115     0.4051
A_2     C     0.3702     0.0401     0.7974
A_2     C     0.4087     0.3624     0.7681
A_2     C     0.7387     0.3405     0.85
A_2     C     0.3246     0.906     0.9105
A_2     C     0.9496     0.8253     0.3857
A_2     C     0.6126     0.0405     0.7735
A_2     C     0.9374     0.6426     0.6789
A_2     C     0.0893     0.0252     0.9937
A_2     C     0.9249     0.1131     0.5396
A_2     C     0.5099     0.5703     0.1562
A_2     C     0.5813     0.5719     0.2936
A_2     C     0.3711     0.873     0.9059
A_2     C     0.5541     0.2388     0.4118
A_2     C     0.4621     0.0275     0.9769
A_2     C     0.6377     0.6389     0.5929
A_2     C     0.1775     0.6296     0.816
A_2     C     0.022     0.9752     0.1018
A_2     C     0.8689     0.6416     0.6407
A_2     C     0.0329     0.047     0.4669
A_2     C     0.4262     0.0878     0.1405
A_2     C     0.3979     0.0067     0.8563
A_2     C     0.0674     0.7472     0.8495
A_2     C     0.8244     0.8289     0.8433
A_2     C     0.6214     0.3337     0.3263
A_2     C     0.6436     0.3911     0.2018
A_2     C     0.5762     0.7211     0.0695
A_2     C     0.2632     0.7337     0.5133
A_2     C     0.2717     0.8588     0.87
A_2     C     0.958     0.4722     0.1583
A_2     C     0.4265     0.0363     0.8232
A_2     C     0.5996     0.6633     0.652
A_2     C     0.7373     0.3829     0.6109
A_2     C     0.2804     0.7209     0.4946
A_2     C     0.766     0.2744     0.4386
A_2     C     0.6515     0.8572     0.0739
A_2     C     0.8905     0.4182     0.9232
A_2     C     0.6083     0.8128     0.7102
A_2     C     0.222     0.5596     0.5487
A_2     C     0.5688     0.1744     0.0724
A_2     C     0.2648     0.8375     0.3586
A_2     C     0.2554     0.6526     0.4951
A_2     C     0.4704     0.6831     0.6731
A_2     C     0.4508     0.4917     0.7585
A_2     C     0.758     0.1853     0.5861
A_2     C     0.9222     0.7609     0.4041
A_2     C     0.7339     0.2265     0.7193
A_2     C     0.9718     0.0343     0.7417
A_2     C     0.7073     0.9931     0.8427
A_2     C     0.0662     0.811     0.5688
A_2     C     0.6912     0.8434     0.5795
A_2     C     0.893     0.5347     0.5626
A_2     C     0.9033     0.2999     0.4348
A_2     C     0.1135     0.3382     0.1902
A_2     C     0.8797     0.9835     0.8312
A_2     C     0.8919     0.1305     0.617
A_2     C     0.0096     0.3764     0.7216
A_2     C     0.3958     0.0009     0.3603
A_2     C     0.0494     0.3354     0.4116
A_2     C     0.9879     0.9182     0.7
A_2     C     0.3143     0.7561     0.9438
A_2     C     0.2529     0.9462     0.8423
A_2     C     0.6329     0.8144     0.2582
A_2     C     0.1854     0.9581     0.9213
A_2     C     0.2016     0.3968     0.6269
A_2     C     0.5872     0.4369     0.9523
A_2     C     0.9289     0.0702     0.4332
A_2     C     0.008     0.4482     0.5455
A_2     C     0.4897     0.9045     0.8529
A_2     C     0.1196     0.0947     0.5109
A_2     C     0.5454     0.7668     0.5282
A_2     C     0.4671     0.2867     0.4038
A_2     C     0.1498     0.187     0.4003
A_2     C     0.5524     0.6694     0.662
A_2     C     0.8188     0.8276     0.6284
A_2     C     0.2321     0.7647     0.3045
A_2     C     0.4247     0.6506     0.3076
A_2     C     0.5381     0.5265     0.5317
A_2     C     0.8906     0.359     0.9605
A_2     C     0.6983     0.2087     0.0226
A_2     C     0.6768     0.344     0.2118
A_2     C     0.9887     0.4808     0.0885
A_2     C     0.7926     0.8634     0.6237
A_2     C     0.1805     0.3422     0.7279
A_2     C     0.6946     0.0712     0.7524
A_2     C     0.3221     0.0123     0.9728
A_2     C     0.8851     0.9836     0.5967
A_2     C     0.2851     0.8086     0.2266
A_2     C     0.0006     0.8832     0.8316
A_2     C     0.9106     0.1129     0.6219
A_2     C     0.5994     0.8154     0.6169
A_2     C     0.8079     0.0662     0.9901
A_2     C     0.0965     0.6711     0.2475
A_2     C     0.0286     0.7481     0.0546
A_2     C     0.5636     0.873     0.3797
A_2     C     0.6459     0.1709     0.6064
A_2     C     0.8185     0.745     0.2458
A_2     C     0.9253     0.6319     0.1369
A_2     C     0.5513     0.2011     0.7333
A_2     C     0.4616     0.9736     0.4056
A_2     C     0.2289     0.7552     0.1724
A_2     C     0.691     0.9073     0.3414
A_2     C     0.3228     0.9976     0.188
A_2     C     0.1876     0.6729     0.5645
A_2     C     0.6052     0.4759     0.6863
A_2     C     0.6075     0.0072     0.4742
A_2     C     0.7985     0.0154     0.3564
A_2     C     0.9863     0.6393     0.3712
A_2     C     0.0161     0.4625     0.4275
A_2     C     0.8226     0.8775     0.9903
A_2     C     0.8953     0.5868     0.7908
A_2     C     0.1369     0.0691     0.978
A_2     C     0.3456     0.3418     0.4997
A_2     C     0.2875     0.8235     0.9307
A_2     C     0.2517     0.5274     0.6671
A_2     C     0.9008     0.9935     0.2109
A_2     C     0.6756     0.0632     0.3883
A_2     C     0.8088     0.79     0.6807
A_2     C     0.2209     0.9304     0.727
A_2     C     0.4216     0.0521     0.1841
A_2     C     0.4685     0.5265     0.7907
A_2     C     0.1536     0.7164     0.4242
A_2     C     0.9748     0.3336     0.9485
A_2     C     0.7779     0.3418     0.2862
A_2     C     0.9565     0.3519     0.7359
A_2     C     0.8635     0.7454     0.3508
A_2     C     0.789     0.887     0.3849
A_2     C     0.2695     0.3371     0.5468
A_2     C     0.4373     0.3968     0.385
A_2     C     0.832     0.2665     0.4872
A_2     C     0.0347     0.6525     0.2786
A_2     C     0.705     0.7039     0.7855
A_2     C     0.7286     0.0383     0.0458
A_2     C     0.4236     0.6446     0.249
A_2     C     0.8252     0.6354     0.1068
A_2     C     0.7116     0.8269     0.203
A_2     C     0.5939     0.696     0.1436
A_2     C     0.3798     0.8723     0.3881
A_2     C     0.8337     0.8099     0.2085
A_2     C     0.1594     0.4968     0.4975
A_2     C     0.4976     0.7623     0.8358
A_2     C     0.5053     0.6847     0.0557
A_2     C     0.4836     0.433     0.6205
A_2     C     0.9725     0.364     0.0997
A_2     C     0.7205     0.6781     0.0379
A_2     C     0.1789     0.7459     0.5355
A_2     C     0.0449     0.9293     0.3711
A_2     C     0.6788     0.3486     0.3914
A_2     C     0.3377     0.834     0.3879
A_2     C     0.9938     0.5324     0.2707
A_2     C     0.2623     0.0451     0.5137
A_2     C     0.6659     0.0146     0.5664
A_2     C     0.2121     0.8628     0.0915
A_2     C     0.7972     0.5188     0.0225
A_2     C     0.0909     0.1702     0.6751
A_2     C     0.9165     0.4479     0.4215
A_2     C     0.9868     0.9878     0.803
A_2     C     0.0487     0.3604     0.828
A_2     C     0.0368     0.9966     0.2921
A_2     C     0.0763     0.0409     0.908
A_2     C     0.3096     0.1674     0.784
A_2     C     0.7823     0.5519     0.7431
A_2     C     0.6993     0.1227     0.5351
A_2     C     0.9702     0.0865     0.3015
A_2     C     0.4434     0.2158     0.0572
A_2     C     0.7387     0.3845     0.0703
A_2     C     0.2264     0.1624     0.6001
A_2     C     0.6469     0.863     0.4843
A_2     C     0.4412     0.6327     0.2518
A_2     C     0.7772     0.1787     0.1806
A_2     C     0.184     0.6045     0.1224
A_2     C     0.1201     0.3099     0.7021
A_2     C     0.6523     0.2684     0.8786
A_2     C     0.8492     0.0934     0.3732
A_2     C     0.7992     0.3498     0.5869
A_2     C     0.2512     0.5058     0.5997
A_2     C     0.085     0.4594     0.3435
A_2     C     0.4567     0.6389     0.6204
