MAT-89

loop_
_symmetry_equiv_pos_as_xyz
  x,y,z
_cell_length_a          28.8095
_cell_length_b          45.5304
_cell_length_c          34.0989
_cell_angle_alpha       90.0000
_cell_angle_beta        90.0000
_cell_angle_gamma       90.0000
loop_
_atom_site_label
_atom_site_type_symbol
_atom_site_fract_x
_atom_site_fract_y
_atom_site_fract_z
A_1     C     0.6231     0.3256     0.9135
A_3     C     0.3089     0.7058     0.8963
A_1     C     0.4966     0.057     0.6364
A_2     C     0.5659     0.842     0.6029
A_1     C     0.9795     0.6051     0.7562
A_2     C     0.7001     0.1608     0.1845
A_0     C     0.6942     0.0227     0.2122
A_0     C     0.4564     0.3215     0.3611
A_0     C     0.0521     0.5683     0.5446
A_3     C     0.8406     0.0731     0.4769
A_1     C     0.1143     0.8716     0.8952
A_2     C     0.7681     0.0033     0.8421
A_1     C     0.2941     0.1749     0.0559
A_1     C     0.7128     0.6962     0.0149
A_1     C     0.7318     0.7686     0.2401
A_3     C     0.8936     0.6133     0.9988
A_1     C     0.9677     0.8182     0.6085
A_0     C     0.386     0.5197     0.5135
A_2     C     0.7597     0.773     0.6724
A_1     C     0.2131     0.5261     0.3711
A_2     C     0.232     0.9959     0.42
A_3     C     0.1783     0.427     0.4581
A_1     C     0.8326     0.0241     0.6707
A_3     C     0.2437     0.8163     0.2642
A_2     C     0.5694     0.6951     0.1808
A_2     C     0.2051     0.68     0.1321
A_2     C     0.4841     0.7219     0.4294
A_0     C     0.488     0.4795     0.3424
A_0     C     0.0065     0.8629     0.6264
A_2     C     0.5908     0.0727     0.8774
A_1     C     0.2249     0.0632     0.4568
A_0     C     0.2906     0.1767     0.5127
A_3     C     0.9245     0.9553     0.9229
A_1     C     0.5353     0.2583     0.2486
A_3     C     0.6957     0.2114     0.2073
A_1     C     0.6871     0.5863     0.4081
A_2     C     0.3535     0.0515     0.511
A_3     C     0.2542     0.3491     0.7854
A_1     C     0.9272     0.9484     0.2407
A_0     C     0.1168     0.0176     0.8617
A_0     C     0.29     0.8362     0.6634
A_1     C     0.8222     0.7411     0.0641
A_1     C     0.1667     0.1049     0.9589
A_0     C     0.2698     0.7283     0.4909
A_0     C     0.0218     0.3025     0.1574
A_2     C     0.8212     0.7243     0.7233
A_3     C     0.8965     0.2273     0.4112
A_3     C     0.2175     0.2019     0.0542
A_2     C     0.8081     0.0833     0.95
A_1     C     0.8386     0.6793     0.8218
A_3     C     0.2964     0.1199     0.0702
A_1     C     0.7096     0.9396     0.1435
A_2     C     0.91     0.7671     0.1804
A_1     C     0.8056     0.1682     0.4192
A_0     C     0.0287     0.8197     0.607
A_1     C     0.8432     0.6914     0.0216
A_3     C     0.6421     0.1126     0.2952
A_0     C     0.5083     0.4938     0.4495
A_0     C     0.3302     0.8232     0.2249
A_3     C     0.6555     0.1106     0.4161
A_0     C     0.4614     0.7348     0.3443
A_2     C     0.5511     0.5675     0.8657
A_3     C     0.3781     0.3274     0.9062
A_1     C     0.7386     0.5986     0.7374
A_3     C     0.4465     0.9953     0.1524
A_3     C     0.2744     0.4738     0.7626
A_2     C     0.1464     0.7105     0.8174
A_0     C     0.8063     0.5549     0.7185
A_3     C     0.9921     0.7104     0.3031
A_1     C     0.6375     0.1657     0.8799
A_0     C     0.9579     0.4133     0.4546
A_2     C     0.6811     0.608     0.4322
A_2     C     0.7281     0.9008     0.3031
A_1     C     0.5785     0.3536     0.773
A_3     C     0.5837     0.934     0.6674
A_0     C     0.959     0.5744     0.9467
A_2     C     0.7319     0.3564     0.0821
A_2     C     0.0968     0.8682     0.9921
A_3     C     0.0662     0.7619     0.2981
A_3     C     0.2443     0.4688     0.3295
A_3     C     0.4896     0.5419     0.8778
A_0     C     0.8167     0.4919     0.8701
A_0     C     0.3932     0.875     0.5327
A_3     C     0.2922     0.9633     0.5235
A_1     C     0.3971     0.7799     0.0144
A_0     C     0.3902     0.9101     0.822
A_1     C     0.0883     0.8046     0.8654
A_1     C     0.9011     0.8719     0.6822
A_2     C     0.9998     0.2553     0.7302
A_1     C     0.0076     0.1122     0.93
A_2     C     0.0986     0.2721     0.1387
A_1     C     0.1549     0.8567     0.8651
A_2     C     0.0785     0.5479     0.7189
A_3     C     0.7575     0.8759     0.7278
A_3     C     0.9414     0.1869     0.4211
A_3     C     0.4587     0.5911     0.8712
A_2     C     0.4482     0.0494     0.0122
A_2     C     0.6039     0.4899     0.1157
A_3     C     0.9923     0.7432     0.9341
A_3     C     0.106     0.8753     0.8509
A_2     C     0.6933     0.3447     0.8159
A_2     C     0.4619     0.9106     0.331
A_1     C     0.3949     0.6526     0.3189
A_2     C     0.6242     0.7059     0.8247
A_1     C     0.52     0.5065     0.7254
A_0     C     0.0419     0.6705     0.68
A_3     C     0.617     0.0009     0.5789
A_3     C     0.051     0.4949     0.5171
A_0     C     0.681     0.6573     0.3207
A_2     C     0.4783     0.7862     0.6163
A_3     C     0.8465     0.5817     0.4035
A_3     C     0.3072     0.8843     0.3356
A_3     C     0.9001     0.6579     0.9601
A_1     C     0.3231     0.4206     0.1774
A_1     C     0.5188     0.8709     0.1405
A_3     C     0.1729     0.2493     0.2072
A_0     C     0.659     0.2773     0.3121
A_3     C     0.641     0.455     0.0609
A_1     C     0.515     0.2186     0.4083
A_3     C     0.7752     0.9663     0.6098
A_1     C     0.2396     0.5068     0.4119
A_2     C     0.1333     0.8328     0.1936
A_3     C     0.8686     0.3862     0.0921
A_3     C     0.7517     0.6974     0.361
A_2     C     0.1117     0.9815     0.1756
A_0     C     0.1204     0.7665     0.4834
A_3     C     0.2025     0.9087     0.103
A_1     C     0.9019     0.3016     0.9327
A_3     C     0.4491     0.8514     0.0503
A_1     C     0.0467     0.6452     0.8931
A_2     C     0.4563     0.0446     0.2489
A_2     C     0.4617     0.0592     0.4423
A_2     C     0.3605     0.6427     0.8428
A_0     C     0.4281     0.0105     0.2536
A_3     C     0.761     0.5244     0.7822
A_2     C     0.0948     0.0343     0.1623
A_1     C     0.8522     0.4987     0.1226
A_1     C     0.4243     0.6355     0.6636
A_0     C     0.7207     0.899     0.7724
A_1     C     0.814     0.6925     0.0254
A_3     C     0.3509     0.7193     0.1368
A_1     C     0.4972     0.1142     0.9841
A_0     C     0.9153     0.3356     0.3547
A_1     C     0.87     0.0776     0.6161
A_3     C     0.108     0.9914     0.4193
A_3     C     0.3425     0.6531     0.4647
A_3     C     0.7735     0.6702     0.2187
A_3     C     0.644     0.514     0.4926
A_1     C     0.7038     0.1241     0.4833
A_2     C     0.7991     0.4142     0.2113
A_1     C     0.4453     0.0694     0.3347
A_3     C     0.9204     0.9938     0.7731
A_0     C     0.2886     0.3512     0.0005
A_1     C     0.3971     0.3385     0.6843
A_3     C     0.9865     0.396     0.7242
A_3     C     0.9471     0.8113     0.3134
A_2     C     0.9179     0.038     0.2066
A_0     C     0.6901     0.3068     0.1202
A_1     C     0.8659     0.6709     0.7977
A_0     C     0.7872     0.3265     0.732
A_3     C     0.5563     0.6469     0.8891
A_0     C     0.4967     0.1593     0.0824
A_0     C     0.0483     0.1331     0.3062
A_3     C     0.9944     0.4043     0.0607
A_3     C     0.6305     0.2232     0.0288
A_2     C     0.5109     0.1493     0.6206
A_2     C     0.6276     0.8814     0.7344
A_1     C     0.7952     0.1179     0.1409
A_1     C     0.8995     0.0324     0.3826
A_0     C     0.6269     0.8651     0.7725
A_0     C     0.3857     0.3933     0.4235
A_2     C     0.0142     0.2246     0.4423
A_2     C     0.0707     0.272     0.6159
A_3     C     0.7875     0.2673     0.8776
A_2     C     0.4181     0.2711     0.5831
A_0     C     0.9598     0.0939     0.3158
A_1     C     0.0203     0.2774     0.4377
A_0     C     0.6167     0.6157     0.7013
A_1     C     0.0359     0.6472     0.2943
A_0     C     0.7029     0.6683     0.69
A_1     C     0.0743     0.4311     0.7663
A_2     C     0.2225     0.1375     0.1209
A_3     C     0.319     0.1415     0.3482
A_1     C     0.5427     0.0993     0.8593
A_2     C     0.19     0.5747     0.8796
A_2     C     0.4936     0.1157     0.2695
A_0     C     0.6048     0.2229     0.4036
A_2     C     0.5158     0.0439     0.6744
A_0     C     0.4914     0.3812     0.6168
A_0     C     0.2487     0.9299     0.079
A_3     C     0.5856     0.8869     0.7064
A_0     C     0.919     0.2725     0.4732
A_3     C     0.2156     0.8216     0.1973
A_2     C     0.2609     0.5789     0.5065
A_2     C     0.5203     0.1962     0.1577
A_3     C     0.3554     0.1959     0.7291
A_2     C     0.4358     0.9992     0.6166
A_3     C     0.0277     0.5307     0.2933
A_0     C     0.6476     0.9108     0.2242
A_3     C     0.9237     0.0339     0.6021
A_2     C     0.8029     0.6461     0.7596
A_0     C     0.9627     0.0713     0.8424
A_0     C     0.8755     0.0161     0.6676
A_2     C     0.5377     0.4058     0.9849
A_1     C     0.2443     0.4435     0.1327
A_3     C     0.0237     0.1791     0.2253
A_1     C     0.379     0.8992     0.5994
A_1     C     0.6356     0.6797     0.9622
A_3     C     0.1745     0.5368     0.8471
A_2     C     0.2884     0.7871     0.3598
A_0     C     0.0551     0.7316     0.4734
A_3     C     0.5345     0.0148     0.7174
A_2     C     0.4271     0.2166     0.836
A_0     C     0.1428     0.1564     0.68
A_2     C     0.8731     0.1433     0.7941
A_3     C     0.1561     0.5477     0.731
A_0     C     0.3488     0.5519     0.1417
A_1     C     0.9683     0.235     0.6854
A_3     C     0.4157     0.2824     0.9469
A_3     C     0.5061     0.1179     0.3988
A_2     C     0.6575     0.1352     0.9721
A_3     C     0.764     0.323     0.5622
A_3     C     0.3048     0.1668     0.9028
A_3     C     0.6608     0.1931     0.9912
A_3     C     0.3564     0.7414     0.554
A_3     C     0.2355     0.0624     0.5235
A_1     C     0.3644     0.4516     0.2738
A_1     C     0.6139     0.8844     0.8117
A_3     C     0.4836     0.1874     0.8643
A_1     C     0.4035     0.3006     0.003
A_1     C     0.0422     0.3694     0.9302
A_3     C     0.746     0.6325     0.5273
A_0     C     0.4119     0.2102     0.1978
A_3     C     0.9705     0.9953     0.7192
A_3     C     0.4071     0.7321     0.4902
A_3     C     0.2104     0.7112     0.4357
A_2     C     0.0303     0.047     0.0265
A_0     C     0.8319     0.0262     0.1195
A_0     C     0.1167     0.2203     0.0009
A_3     C     0.0302     0.474     0.1247
A_3     C     0.5567     0.8398     0.6289
A_2     C     0.7664     0.8964     0.0494
A_3     C     0.0615     0.7269     0.2584
A_0     C     0.7711     0.8634     0.331
A_1     C     0.6268     0.213     0.4065
A_0     C     0.5649     0.8125     0.5625
A_1     C     0.0507     0.4459     0.1578
A_0     C     0.1678     0.7534     0.5291
A_3     C     0.0298     0.8753     0.4315
A_3     C     0.6156     0.1835     0.0786
A_1     C     0.9457     0.0302     0.2047
A_0     C     0.6973     0.3352     0.3648
A_3     C     0.3075     0.541     0.7813
A_1     C     0.9058     0.1707     0.4597
A_1     C     0.2644     0.8677     0.869
A_1     C     0.7439     0.1388     0.224
A_3     C     0.1077     0.9878     0.5569
A_0     C     0.1871     0.8975     0.0668
A_3     C     0.8335     0.2985     0.448
A_2     C     0.2453     0.8247     0.3789
A_2     C     0.1351     0.1942     0.2205
A_3     C     0.6703     0.7884     0.9258
A_0     C     0.8904     0.8159     0.4832
A_2     C     0.5818     0.6695     0.2087
A_1     C     0.259     0.7765     0.2236
A_0     C     0.2786     0.3551     0.1931
A_2     C     0.0311     0.4258     0.0096
A_3     C     0.2899     0.2374     0.0155
A_3     C     0.6635     0.0947     0.0777
A_0     C     0.3968     0.9995     0.8284
A_2     C     0.9476     0.284     0.2795
A_3     C     0.7894     0.8938     0.1616
A_3     C     0.7554     0.0275     0.71
A_3     C     0.7345     0.5505     0.5279
