MAT-96

loop_
_symmetry_equiv_pos_as_xyz
  x,y,z
_cell_length_a          30.609
_cell_length_b          45.6884
_cell_length_c          35.2167
_cell_angle_alpha       90.0000
_cell_angle_beta        90.0000
_cell_angle_gamma       90.0000
loop_
_atom_site_label
_atom_site_type_symbol
_atom_site_fract_x
_atom_site_fract_y
_atom_site_fract_z
A_1     C     0.6141     0.3373     0.7721
A_3     C     0.2485     0.6456     0.8998
A_1     C     0.4861     0.1745     0.5964
A_2     C     0.446     0.7246     0.5569
A_1     C     0.1261     0.6054     0.6356
A_2     C     0.6582     0.1056     0.3059
A_0     C     0.7682     0.9121     0.1316
A_0     C     0.4091     0.1982     0.2449
A_0     C     0.9227     0.6755     0.5662
A_3     C     0.9689     0.0352     0.508
A_1     C     0.2117     0.8594     0.9415
A_2     C     0.8236     0.9216     0.7337
A_1     C     0.2852     0.2921     0.0762
A_1     C     0.7578     0.679     0.1891
A_1     C     0.8151     0.803     0.2626
A_3     C     0.9227     0.5932     0.0769
A_1     C     0.0481     0.7806     0.5694
A_0     C     0.3485     0.5446     0.4948
A_2     C     0.723     0.7527     0.6507
A_1     C     0.2837     0.6122     0.3205
A_2     C     0.2961     0.1372     0.525
A_3     C     0.2283     0.3615     0.5636
A_1     C     0.8027     0.976     0.7716
A_3     C     0.3283     0.7796     0.3126
A_2     C     0.4812     0.5812     0.099
A_2     C     0.1508     0.7255     0.0549
A_2     C     0.5473     0.7405     0.5079
A_0     C     0.4721     0.5772     0.2975
A_0     C     0.9512     0.8939     0.6965
A_2     C     0.5186     0.9456     0.7834
A_1     C     0.1727     0.9497     0.3328
A_0     C     0.419     0.2355     0.4535
A_3     C     0.8015     0.9093     0.8012
A_1     C     0.3539     0.221     0.3099
A_3     C     0.7636     0.1516     0.2112
A_1     C     0.6862     0.4426     0.4574
A_2     C     0.3612     0.0362     0.5267
A_3     C     0.311     0.4361     0.8652
A_1     C     0.9738     0.9503     0.2278
A_0     C     0.205     0.8699     0.8586
A_0     C     0.3356     0.967     0.7263
A_1     C     0.8139     0.7629     0.0737
A_1     C     0.2944     0.1436     0.909
A_0     C     0.4196     0.7582     0.3433
A_0     C     0.0002     0.2786     0.18
A_2     C     0.8278     0.6727     0.8011
A_3     C     0.8323     0.2153     0.5173
A_3     C     0.3573     0.1507     0.1913
A_2     C     0.8662     0.1173     0.8765
A_1     C     0.8256     0.74     0.0028
A_3     C     0.4455     0.1028     0.9235
A_1     C     0.6934     0.9243     0.0275
A_2     C     0.9963     0.7172     0.0356
A_1     C     0.8652     0.2202     0.3639
A_0     C     0.9651     0.688     0.6115
A_1     C     0.9326     0.6821     0.1195
A_3     C     0.5879     0.0654     0.2727
A_0     C     0.5729     0.5568     0.4913
A_0     C     0.4553     0.6969     0.2608
A_3     C     0.6021     0.2215     0.3434
A_0     C     0.386     0.7009     0.2482
A_2     C     0.6007     0.6133     0.8221
A_3     C     0.4183     0.3566     0.7662
A_1     C     0.7112     0.6452     0.6387
A_3     C     0.5153     0.0285     0.1259
A_3     C     0.2736     0.5148     0.8057
A_2     C     0.0126     0.8105     0.8955
A_0     C     0.8369     0.66     0.7389
A_3     C     0.0615     0.6996     0.2354
A_1     C     0.5497     0.1738     0.9829
A_0     C     0.9134     0.5422     0.5223
A_2     C     0.6949     0.5408     0.3827
A_2     C     0.7703     0.9161     0.2801
A_1     C     0.5594     0.3167     0.741
A_3     C     0.4801     0.9297     0.605
A_0     C     0.8909     0.4224     0.9017
A_2     C     0.7461     0.4118     0.1698
A_2     C     0.2253     0.9923     0.0369
A_3     C     0.9823     0.6545     0.301
A_3     C     0.2736     0.5729     0.4237
A_3     C     0.4795     0.5578     0.844
A_0     C     0.9643     0.6527     0.8655
A_0     C     0.4653     0.7097     0.5194
A_3     C     0.327     0.9586     0.5425
A_1     C     0.4489     0.7226     0.9566
A_0     C     0.3593     0.9781     0.8649
A_1     C     0.0533     0.8728     0.7209
A_1     C     0.938     0.8663     0.6291
A_2     C     0.9192     0.1464     0.8314
A_1     C     0.1356     0.1921     0.7716
A_2     C     0.2334     0.2486     0.146
A_1     C     0.125     0.8745     0.9136
A_2     C     0.9722     0.4756     0.6662
A_3     C     0.7913     0.0306     0.685
A_3     C     0.1035     0.1315     0.5849
A_3     C     0.529     0.6337     0.8588
A_2     C     0.5355     0.1334     0.9589
A_2     C     0.5271     0.5505     0.1915
A_3     C     0.0937     0.7346     0.9542
A_3     C     0.1062     0.8885     0.7446
A_2     C     0.847     0.4325     0.8784
A_2     C     0.371     0.8485     0.3678
A_1     C     0.1986     0.6252     0.1984
A_2     C     0.5091     0.8378     0.9878
A_1     C     0.4691     0.6417     0.694
A_0     C     0.0745     0.5587     0.5687
A_3     C     0.6285     0.0465     0.7132
A_3     C     0.1847     0.4981     0.6517
A_0     C     0.6636     0.7015     0.3144
A_2     C     0.5743     0.8428     0.633
A_3     C     0.8813     0.471     0.3198
A_3     C     0.3807     0.8507     0.2365
A_3     C     0.9199     0.6035     0.9682
A_1     C     0.2694     0.442     0.1782
A_1     C     0.372     0.921     0.9698
A_3     C     0.1833     0.3448     0.2545
A_0     C     0.6901     0.2021     0.2335
A_3     C     0.6003     0.3739     0.9311
A_1     C     0.46     0.2388     0.4709
A_3     C     0.8054     0.1215     0.6461
A_1     C     0.3374     0.3814     0.3923
A_2     C     0.182     0.917     0.0439
A_3     C     0.9044     0.3325     0.0982
A_3     C     0.771     0.6526     0.4437
A_2     C     0.2246     0.9118     0.2739
A_0     C     0.101     0.855     0.6315
A_3     C     0.2309     0.973     0.9424
A_1     C     0.0963     0.3129     0.0197
A_3     C     0.5107     0.9023     0.193
A_1     C     0.1069     0.7026     0.0398
A_2     C     0.4217     0.0286     0.1729
A_2     C     0.5436     0.1192     0.5351
A_2     C     0.284     0.7374     0.7273
A_0     C     0.4913     0.9788     0.2793
A_3     C     0.7567     0.6071     0.6925
A_2     C     0.0638     0.1512     0.1865
A_1     C     0.7957     0.5232     0.1278
A_1     C     0.6116     0.5828     0.7508
A_0     C     0.8926     0.8938     0.8574
A_1     C     0.8043     0.7192     0.1281
A_3     C     0.3115     0.8446     0.0471
A_1     C     0.4555     0.0453     0.0321
A_0     C     0.7519     0.2819     0.3765
A_1     C     0.9032     0.1677     0.5992
A_3     C     0.1918     0.916     0.4317
A_3     C     0.3047     0.7814     0.434
A_3     C     0.6877     0.5297     0.2635
A_3     C     0.5135     0.3719     0.4282
A_1     C     0.6616     0.2284     0.4379
A_2     C     0.6659     0.3845     0.1504
A_1     C     0.4467     0.113     0.3537
A_3     C     0.8876     0.0062     0.6773
A_0     C     0.2129     0.1878     0.9662
A_1     C     0.4674     0.4312     0.7849
A_3     C     0.067     0.4082     0.6612
A_3     C     0.9201     0.8511     0.3926
A_2     C     0.0312     0.9928     0.2138
A_0     C     0.6928     0.3565     0.2146
A_1     C     0.9625     0.4842     0.8009
A_0     C     0.7744     0.2084     0.7664
A_3     C     0.5376     0.5639     0.041
A_0     C     0.4411     0.1338     0.108
A_0     C     0.0998     0.1705     0.1311
A_3     C     0.9642     0.3343     0.1722
A_3     C     0.4872     0.3132     0.0825
A_2     C     0.4708     0.2308     0.6415
A_2     C     0.5394     0.7945     0.6701
A_1     C     0.8923     0.0811     0.9741
A_1     C     0.8804     0.9751     0.3621
A_0     C     0.7744     0.7093     0.9052
A_0     C     0.576     0.4882     0.407
A_2     C     0.9477     0.1358     0.5566
A_2     C     0.1923     0.1188     0.5596
A_3     C     0.7887     0.306     0.9724
A_2     C     0.4052     0.3025     0.7257
A_0     C     0.8767     0.9579     0.2204
A_1     C     0.0831     0.187     0.452
A_0     C     0.5897     0.5534     0.7211
A_1     C     0.0937     0.6335     0.3176
A_0     C     0.6746     0.6097     0.6008
A_1     C     0.0344     0.3901     0.8997
A_2     C     0.2014     0.0182     0.1895
A_3     C     0.4233     0.2748     0.3488
A_1     C     0.5424     0.9298     0.8682
A_2     C     0.2933     0.6224     0.0111
A_2     C     0.6383     0.9454     0.1828
A_0     C     0.5017     0.292     0.3508
A_2     C     0.4866     0.98     0.5857
A_0     C     0.5619     0.2919     0.6589
A_0     C     0.2727     0.0263     0.9359
A_3     C     0.6333     0.062     0.6388
A_0     C     0.8658     0.3253     0.4579
A_3     C     0.1951     0.8897     0.1037
A_2     C     0.3926     0.6776     0.5437
A_2     C     0.448     0.2536     0.1051
A_3     C     0.3703     0.2009     0.7975
A_2     C     0.5927     0.0408     0.7338
A_3     C     0.0524     0.5123     0.2864
A_0     C     0.5795     0.8161     0.2841
A_3     C     0.9161     0.8925     0.4703
A_2     C     0.7327     0.7217     0.8844
A_0     C     0.9487     0.1157     0.0342
A_0     C     0.8107     0.9501     0.625
A_2     C     0.7086     0.3799     0.9342
A_1     C     0.2152     0.4297     0.9752
A_3     C     0.0955     0.2821     0.2967
A_1     C     0.3377     0.8987     0.5347
A_1     C     0.6656     0.7225     0.9209
A_3     C     0.1947     0.4567     0.7488
A_2     C     0.1805     0.8726     0.4519
A_0     C     0.1761     0.7571     0.5711
A_3     C     0.6072     0.0078     0.7428
A_2     C     0.3476     0.0682     0.9258
A_0     C     0.1675     0.2057     0.7755
A_2     C     0.9445     0.0674     0.8322
A_3     C     0.1361     0.5695     0.8513
A_0     C     0.3051     0.4602     0.213
A_1     C     0.9208     0.1282     0.8227
A_3     C     0.5429     0.3293     0.0184
A_3     C     0.4935     0.1147     0.3022
A_2     C     0.7422     0.1989     0.0106
A_3     C     0.8202     0.3427     0.5949
A_3     C     0.1975     0.1806     0.9055
A_3     C     0.5611     0.2632     0.7996
A_3     C     0.3458     0.7629     0.5577
A_3     C     0.3043     0.0489     0.6838
A_1     C     0.2936     0.4466     0.2477
A_1     C     0.6888     0.8483     0.7752
A_3     C     0.2944     0.1546     0.8457
A_1     C     0.4412     0.2561     0.1739
A_1     C     0.1732     0.3569     0.9144
A_3     C     0.7442     0.7231     0.5513
A_0     C     0.4207     0.279     0.2373
A_3     C     0.8864     0.9881     0.7574
A_3     C     0.5307     0.698     0.4361
A_3     C     0.143     0.7067     0.4331
A_2     C     0.0786     0.1686     0.0509
A_0     C     0.8015     0.9916     0.0926
A_0     C     0.2049     0.1782     0.9857
A_3     C     0.9093     0.3886     0.1788
A_3     C     0.6391     0.875     0.7748
A_2     C     0.6121     0.8225     0.954
A_3     C     0.0594     0.6789     0.3011
A_0     C     0.6868     0.7277     0.1864
A_1     C     0.6309     0.2044     0.4376
A_0     C     0.5961     0.7725     0.5208
A_1     C     0.079     0.5404     0.2027
A_0     C     0.0844     0.9148     0.5956
A_3     C     0.9949     0.835     0.4465
A_3     C     0.6247     0.0964     0.9925
A_1     C     0.925     0.859     0.104
A_0     C     0.7411     0.5043     0.3227
A_3     C     0.296     0.5331     0.7171
A_1     C     0.9788     0.0867     0.5739
A_1     C     0.3239     0.8571     0.7365
A_1     C     0.7966     0.0145     0.1756
A_3     C     0.1024     0.974     0.4638
A_0     C     0.2854     0.7542     0.0543
A_3     C     0.8361     0.3348     0.4023
A_2     C     0.2747     0.8271     0.2606
A_2     C     0.184     0.2776     0.1758
A_3     C     0.634     0.7931     0.8625
A_0     C     0.8194     0.669     0.4041
A_2     C     0.6892     0.6835     0.1781
A_1     C     0.2391     0.9025     0.32
A_0     C     0.2515     0.3395     0.1214
A_2     C     0.9679     0.3774     0.0498
A_3     C     0.2308     0.2766     0.9221
A_3     C     0.6402     0.2222     0.1002
A_0     C     0.3563     0.0376     0.7554
A_2     C     0.9693     0.2875     0.325
A_3     C     0.8637     0.9748     0.0002
A_3     C     0.5062     0.2748     0.8434
A_3     C     0.4466     0.7892     0.4064
A_3     C     0.4983     0.5848     0.6742
A_3     C     0.6852     0.6579     0.4868
A_3     C     0.9013     0.4234     0.4819
A_3     C     0.5353     0.0372     0.2946
A_3     C     0.2965     0.0588     0.4089
A_3     C     0.7819     0.2552     0.6415
A_3     C     0.6636     0.1234     0.4473
A_3     C     0.1878     0.7958     0.8941
A_3     C     0.1886     0.1337     0.5388
A_3     C     0.2155     0.2948     0.8958
A_3     C     0.7238     0.465     0.2105
A_3     C     0.5859     0.7171     0.1033
A_3     C     0.8747     0.4777     0.3381
A_3     C     0.3879     0.0557     0.2235
A_3     C     0.9821     0.553     0.1917
A_3     C     0.678     0.576     0.4827
A_3     C     0.2716     0.58     0.4969
A_3     C     0.6672     0.9563     0.9283
A_3     C     0.8187     0.8858     0.3333
A_3     C     0.422     0.13     0.0754
A_3     C     0.9132     0.7119     0.8807
A_3     C     0.2193     0.6759     0.3754
A_3     C     0.9004     0.2221     0.175
A_3     C     0.151     0.4668     0.9422
A_3     C     0.1351     0.6926     0.7862
A_3     C     0.8946     0.0539     0.8679
A_3     C     0.9815     0.8016     0.8779
A_3     C     0.4421     0.8312     0.803
A_3     C     0.3334     0.0119     0.8167
A_3     C     0.261     0.4928     0.8238
A_3     C     0.9174     0.5692     0.6748
A_3     C     0.3838     0.3312     0.384
A_3     C     0.5294     0.9075     0.8716
A_3     C     0.7956     0.2482     0.9912
A_3     C     0.8814     0.6536     0.5487
A_3     C     0.7945     0.2874     0.1923
A_3     C     0.948     0.812     0.5259
A_3     C     0.1581     0.6021     0.5319
A_3     C     0.1884     0.2806     0.0626
A_3     C     0.9499     0.1968     0.9382
A_3     C     0.9694     0.8787     0.5192
A_3     C     0.2859     0.187     0.9059
A_3     C     0.7334     0.5465     0.0303
A_3     C     0.4301     0.5311     0.5963
A_3     C     0.3112     0.033     0.3792
A_3     C     0.8813     0.9609     0.848
A_3     C     0.3674     0.9678     0.406
