MAT-91

loop_
_symmetry_equiv_pos_as_xyz
  x,y,z
_cell_length_a          38.5309
_cell_length_b          33.9039
_cell_length_c          48.6212
_cell_angle_alpha       90.0000
_cell_angle_beta        90.0000
_cell_angle_gamma       90.0000
loop_
_atom_site_label
_atom_site_type_symbol
_atom_site_fract_x
_atom_site_fract_y
_atom_site_fract_z
A_1     C     0.7197     0.0856     0.3388
A_0     C     0.9054     0.5453     0.3612
A_0     C     0.3958     0.01     0.9682
A_2     C     0.593     0.5594     0.3269
A_1     C     0.8398     0.2995     0.89
A_1     C     0.07     0.039     0.2208
A_3     C     0.3435     0.4206     0.8182
A_3     C     0.0407     0.3646     0.2962
A_0     C     0.5586     0.7665     0.2588
A_3     C     0.6714     0.2318     0.8129
A_1     C     0.3544     0.8217     0.6143
A_2     C     0.8161     0.9817     0.515
A_1     C     0.802     0.338     0.1827
A_0     C     0.8335     0.0605     0.6509
A_3     C     0.4426     0.2462     0.0498
A_0     C     0.4042     0.837     0.7956
A_2     C     0.3103     0.0305     0.3375
A_1     C     0.9456     0.9927     0.9443
A_2     C     0.5057     0.5243     0.9039
A_0     C     0.0143     0.4399     0.196
A_3     C     0.2098     0.3755     0.1792
A_2     C     0.6706     0.5854     0.565
A_2     C     0.2036     0.6222     0.713
A_0     C     0.6972     0.4167     0.4533
A_3     C     0.3007     0.6724     0.7769
A_0     C     0.3173     0.8574     0.9417
A_0     C     0.7694     0.1407     0.469
A_2     C     0.3857     0.9154     0.1366
A_0     C     0.7712     0.6949     0.6931
A_0     C     0.0746     0.2318     0.2973
A_0     C     0.1064     0.2937     0.855
A_3     C     0.3254     0.2627     0.7996
A_2     C     0.6163     0.1743     0.0044
A_1     C     0.0911     0.1595     0.358
A_0     C     0.3614     0.2269     0.5758
A_2     C     0.1817     0.3488     0.8473
A_0     C     0.0311     0.4119     0.9967
A_1     C     0.0249     0.3674     0.6947
A_1     C     0.0676     0.9445     0.259
A_0     C     0.7643     0.2386     0.0808
A_1     C     0.5805     0.4793     0.9992
A_1     C     0.8423     0.2967     0.4962
A_2     C     0.4184     0.0827     0.1273
A_3     C     0.6856     0.8389     0.9497
A_1     C     0.9684     0.2794     0.2737
A_1     C     0.3969     0.8228     0.2476
A_3     C     0.722     0.7881     0.0197
A_2     C     0.0308     0.7393     0.211
A_0     C     0.7621     0.2503     0.5782
A_2     C     0.9147     0.0729     0.36
A_3     C     0.2786     0.2238     0.6984
A_0     C     0.812     0.8649     0.2302
A_2     C     0.0605     0.061     0.0681
A_1     C     0.349     0.1311     0.7009
A_3     C     0.6245     0.111     0.3807
A_0     C     0.2315     0.2148     0.4245
A_3     C     0.7644     0.332     0.864
A_1     C     0.2853     0.471     0.961
A_2     C     0.0523     0.0363     0.5035
A_2     C     0.9886     0.1591     0.0247
A_2     C     0.4918     0.9393     0.6545
A_1     C     0.0482     0.8534     0.1168
A_1     C     0.9693     0.9986     0.1926
A_3     C     0.103     0.8447     0.5681
A_1     C     0.9698     0.8648     0.0593
A_1     C     0.5077     0.7566     0.0689
A_1     C     0.1804     0.339     0.819
A_1     C     0.5718     0.8245     0.0739
A_2     C     0.1001     0.1721     0.3366
A_0     C     0.8487     0.8564     0.8753
A_3     C     0.4174     0.0864     0.1572
A_0     C     0.8849     0.0361     0.7015
A_2     C     0.3145     0.4962     0.9347
A_3     C     0.0826     0.5258     0.8579
A_0     C     0.1935     0.0728     0.1069
A_1     C     0.5467     0.3208     0.731
A_3     C     0.7394     0.6119     0.4114
A_0     C     0.5959     0.4021     0.5399
A_3     C     0.1174     0.2827     0.3274
A_0     C     0.6472     0.5248     0.8579
A_3     C     0.3121     0.6568     0.0458
A_3     C     0.8171     0.0116     0.026
A_0     C     0.866     0.1854     0.2468
A_1     C     0.2699     0.0865     0.4493
A_2     C     0.1281     0.0093     0.425
A_2     C     0.3011     0.0727     0.9201
A_3     C     0.9255     0.5113     0.7631
A_3     C     0.813     0.6363     0.3927
A_3     C     0.2784     0.8874     0.4696
A_0     C     0.4938     0.4608     0.5425
A_3     C     0.6325     0.8414     0.8032
A_0     C     0.4422     0.2968     0.49
A_3     C     0.3717     0.7093     0.5826
A_2     C     0.5413     0.354     0.0714
A_0     C     0.7111     0.3458     0.5968
A_1     C     0.8683     0.7384     0.1344
A_2     C     0.1262     0.5902     0.7089
A_2     C     0.0801     0.3994     0.3798
A_2     C     0.8514     0.8393     0.0352
A_0     C     0.8642     0.6414     0.4697
A_2     C     0.2586     0.2227     0.097
A_0     C     0.4892     0.8832     0.9967
A_3     C     0.0479     0.2913     0.1108
A_3     C     0.1239     0.4674     0.8249
A_3     C     0.4226     0.0165     0.6314
A_1     C     0.6592     0.1483     0.3069
A_3     C     0.8896     0.9254     0.5316
A_2     C     0.1296     0.6734     0.1911
A_3     C     0.0876     0.6849     0.4379
A_3     C     0.8756     0.6276     0.8178
A_2     C     0.5432     0.2176     0.3043
A_3     C     0.3674     0.2293     0.3947
A_1     C     0.7279     0.1947     0.4401
A_3     C     0.5048     0.3648     0.7494
A_2     C     0.0162     0.6286     0.6736
A_1     C     0.0986     0.4583     0.435
A_0     C     0.3449     0.9284     0.4869
A_1     C     0.1933     0.4717     0.0682
A_3     C     0.9664     0.6451     0.1474
A_3     C     0.5489     0.0605     0.3727
A_1     C     0.731     0.5035     0.4248
A_1     C     0.3842     0.237     0.9045
A_3     C     0.7958     0.1086     0.0564
A_2     C     0.9156     0.3153     0.7861
A_2     C     0.8072     0.611     0.6283
A_2     C     0.5218     0.6785     0.497
A_2     C     0.7823     0.8393     0.6106
A_0     C     0.0161     0.4354     0.7413
A_3     C     0.6599     0.7477     0.1643
A_2     C     0.5118     0.2442     0.0411
A_1     C     0.483     0.0291     0.2467
A_1     C     0.6045     0.8334     0.0075
A_0     C     0.8254     0.7601     0.6325
A_3     C     0.0304     0.1613     0.6997
A_3     C     0.376     0.5734     0.6638
A_0     C     0.6886     0.0838     0.6635
A_1     C     0.9964     0.622     0.9957
A_0     C     0.013     0.4301     0.0329
A_1     C     0.2498     0.7098     0.5486
A_1     C     0.7792     0.7027     0.4027
A_0     C     0.4853     0.1428     0.0934
A_2     C     0.3247     0.5107     0.6464
A_3     C     0.5649     0.9394     0.5164
A_0     C     0.9606     0.093     0.1112
A_1     C     0.2372     0.2062     0.1634
A_1     C     0.4562     0.3996     0.525
A_3     C     0.8804     0.4054     0.2069
A_2     C     0.3996     0.9723     0.5182
A_1     C     0.069     0.4355     0.8858
A_1     C     0.7681     0.9775     0.5152
A_2     C     0.8764     0.5377     0.7789
A_0     C     0.6996     0.7567     0.3667
A_1     C     0.4467     0.0409     0.6558
A_3     C     0.7974     0.278     0.8077
A_2     C     0.737     0.7913     0.0712
A_1     C     0.4683     0.8149     0.8759
A_2     C     0.2619     0.4032     0.2655
A_2     C     0.4944     0.3175     0.9082
A_2     C     0.2372     0.6804     0.8794
A_0     C     0.2113     0.9036     0.5206
A_1     C     0.7906     0.8516     0.0397
A_1     C     0.046     0.8459     0.2874
A_2     C     0.318     0.5152     0.6637
A_3     C     0.0387     0.3715     0.4495
A_3     C     0.3231     0.4727     0.5354
A_2     C     0.6499     0.059     0.7669
A_3     C     0.7587     0.3766     0.1622
A_2     C     0.7157     0.6813     0.8118
A_2     C     0.8195     0.5866     0.1819
A_0     C     0.619     0.3037     0.4405
A_2     C     0.0499     0.4106     0.8557
A_0     C     0.1475     0.5099     0.9603
A_0     C     0.8486     0.621     0.4313
A_1     C     0.7933     0.4281     0.8952
A_1     C     0.4133     0.1749     0.636
A_0     C     0.7838     0.7612     0.7579
A_1     C     0.514     0.113     0.3144
A_2     C     0.9326     0.8527     0.0819
A_3     C     0.3228     0.2589     0.0455
A_2     C     0.3596     0.3828     0.4124
A_2     C     0.0672     0.5992     0.083
A_3     C     0.0156     0.4013     0.6843
A_2     C     0.4304     0.8915     0.6116
A_3     C     0.4399     0.4616     0.4068
A_3     C     0.5965     0.946     0.2871
A_2     C     0.174     0.6473     0.5761
A_3     C     0.0993     0.7918     0.7898
A_2     C     0.8816     0.5027     0.1779
A_0     C     0.4452     0.8902     0.0564
A_2     C     0.8814     0.88     0.012
A_2     C     0.5359     0.2323     0.9171
A_2     C     0.1501     0.9751     0.554
A_1     C     0.3212     0.6937     0.053
A_1     C     0.3871     0.6944     0.5533
A_2     C     0.7198     0.2338     0.5605
A_1     C     0.935     0.088     0.2943
A_2     C     0.1224     0.8023     0.6872
A_2     C     0.5186     0.2867     0.0144
A_3     C     0.0994     0.0056     0.1363
A_3     C     0.7907     0.8514     0.3691
A_0     C     0.8571     0.2784     0.6074
A_2     C     0.9593     0.61     0.3783
A_3     C     0.9235     0.9388     0.5874
A_1     C     0.3054     0.7119     0.7901
A_0     C     0.5946     0.508     0.079
A_1     C     0.5125     0.1723     0.5097
A_3     C     0.9562     0.8542     0.2506
A_2     C     0.9407     0.6842     0.1967
A_3     C     0.844     0.2478     0.713
A_3     C     0.6817     0.6642     0.9923
A_2     C     0.2124     0.5362     0.8264
A_2     C     0.986     0.893     0.7348
A_0     C     0.8184     0.4949     0.4512
A_3     C     0.5202     0.3131     0.4087
A_0     C     0.6543     0.1892     0.8541
A_1     C     0.3723     0.2813     0.5812
A_0     C     0.2255     0.2126     0.1321
A_2     C     0.1334     0.8025     0.8491
A_3     C     0.4953     0.6574     0.7451
A_1     C     0.2511     0.9061     0.3015
A_1     C     0.6942     0.3634     0.803
A_1     C     0.5565     0.6434     0.1691
A_1     C     0.6443     0.6089     0.8775
A_0     C     0.6392     0.0191     0.4281
A_2     C     0.5429     0.1876     0.3505
A_1     C     0.2591     0.4092     0.4259
A_0     C     0.0183     0.7177     0.6363
A_0     C     0.3969     0.8383     0.1097
A_2     C     0.8858     0.3187     0.1585
A_2     C     0.2349     0.1008     0.3987
A_3     C     0.6604     0.9282     0.291
A_3     C     0.242     0.8969     0.9629
A_1     C     0.3112     0.3954     0.3637
A_0     C     0.6124     0.5566     0.5075
A_3     C     0.5511     0.5073     0.7519
A_2     C     0.0916     0.3606     0.1467
A_0     C     0.6028     0.6488     0.9583
A_3     C     0.217     0.7194     0.9309
A_0     C     0.604     0.5551     0.5436
A_2     C     0.5333     0.0988     0.7105
A_2     C     0.6833     0.3714     0.4442
A_3     C     0.7023     0.868     0.5031
A_0     C     0.8702     0.6681     0.6482
A_3     C     0.4552     0.1039     0.3954
A_0     C     0.9136     0.1121     0.3426
A_1     C     0.2208     0.2451     0.1964
A_3     C     0.5526     0.3695     0.9286
A_0     C     0.6407     0.29     0.9526
A_0     C     0.3975     0.7709     0.6012
A_1     C     0.1663     0.5984     0.8699
A_0     C     0.7096     0.2112     0.1034
A_0     C     0.8654     0.5246     0.6474
A_1     C     0.6133     0.8981     0.8367
A_3     C     0.3667     0.5803     0.5162
A_3     C     0.6551     0.6097     0.8718
A_1     C     0.4336     0.0671     0.6031
A_2     C     0.6767     0.5876     0.1506
A_2     C     0.9555     0.7591     0.6125
A_0     C     0.8164     0.391     0.0817
A_1     C     0.8421     0.1803     0.4444
A_2     C     0.5343     0.1878     0.2154
A_2     C     0.8065     0.7925     0.0042
A_2     C     0.4126     0.738     0.3228
A_0     C     0.0337     0.3672     0.5056
A_2     C     0.9448     0.2507     0.4688
A_2     C     0.6629     0.4084     0.8058
A_2     C     0.9325     0.835     0.6778
A_1     C     0.1078     0.1486     0.6088
A_1     C     0.156     0.174     0.3826
A_1     C     0.9105     0.1806     0.5102
A_3     C     0.3504     0.8623     0.6409
A_2     C     0.7229     0.2937     0.7723
A_1     C     0.7183     0.1472     0.4458
A_3     C     0.4226     0.7586     0.0518
A_2     C     0.9427     0.2073     0.6806
A_1     C     0.5566     0.2028     0.4396
A_3     C     0.1796     0.7944     0.2348
A_3     C     0.7289     0.0016     0.3983
A_0     C     0.0043     0.0566     0.389
A_1     C     0.6283     0.0418     0.2676
A_0     C     0.0558     0.3069     0.0665
A_0     C     0.0378     0.9274     0.5261
A_3     C     0.8826     0.659     0.409
A_2     C     0.1713     0.7919     0.2379
A_1     C     0.4398     0.3674     0.5088
A_1     C     0.0703     0.3115     0.3244
A_0     C     0.6694     0.8206     0.8466
A_2     C     0.4955     0.1396     0.1494
A_0     C     0.6638     0.3244     0.3336
A_1     C     0.3625     0.7552     0.7805
A_0     C     0.5903     0.8325     0.4905
A_2     C     0.6101     0.2034     0.4685
A_2     C     0.7364     0.8007     0.0713
A_3     C     0.6695     0.9786     0.7013
A_1     C     0.2127     0.5392     0.6706
A_0     C     0.2689     0.4788     0.9403
A_1     C     0.8434     0.2652     0.8026
A_2     C     0.8914     0.7514     0.5106
A_2     C     0.6847     0.6338     0.6435
A_3     C     0.174     0.2765     0.5117
A_1     C     0.1183     0.3563     0.4679
A_2     C     0.0106     0.3198     0.5794
A_0     C     0.6633     0.7985     0.8114
A_0     C     0.0269     0.6861     0.2546
A_3     C     0.8825     0.3198     0.6004
A_1     C     0.3868     0.8585     0.6394
A_3     C     0.0963     0.4968     0.9629
A_0     C     0.9246     0.4898     0.5377
A_1     C     0.1683     0.2739     0.841
A_1     C     0.3259     0.7938     0.1718
A_0     C     0.7565     0.0758     0.3822
A_3     C     0.3521     0.4006     0.2072
A_0     C     0.3826     0.0011     0.9831
A_0     C     0.4616     0.4755     0.4009
A_3     C     0.5107     0.214     0.9324
A_2     C     0.8767     0.2274     0.0227
A_0     C     0.321     0.296     0.4986
A_1     C     0.7887     0.6422     0.6467
A_3     C     0.849     0.9868     0.7878
A_2     C     0.8136     0.3692     0.5952
A_2     C     0.9798     0.4502     0.3752
A_1     C     0.2125     0.0705     0.5033
A_0     C     0.5363     0.2966     0.3882
A_1     C     0.5013     0.2385     0.6998
A_1     C     0.9371     0.5656     0.3927
A_2     C     0.5203     0.5736     0.0414
A_0     C     0.3168     0.2127     0.3836
A_3     C     0.3312     0.2547     0.7528
A_3     C     0.0984     0.6507     0.5963
A_2     C     0.4603     0.644     0.2686
A_1     C     0.5026     0.2186     0.7606
A_1     C     0.2676     0.8168     0.77
A_0     C     0.4133     0.1281     0.0784
A_0     C     0.3201     0.4742     0.5079
A_1     C     0.9477     0.4357     0.9021
A_1     C     0.5603     0.9137     0.0551
A_0     C     0.161     0.1615     0.6418
A_3     C     0.8837     0.3742     0.6849
A_3     C     0.3141     0.6794     0.4948
A_2     C     0.4977     0.4511     0.0958
A_0     C     0.2212     0.22     0.9111
A_3     C     0.4136     0.965     0.8896
A_0     C     0.9012     0.4945     0.7017
A_0     C     0.2611     0.9723     0.6419
A_1     C     0.535     0.4304     0.6072
A_3     C     0.4272     0.7887     0.3477
A_0     C     0.6204     0.6654     0.7219
A_0     C     0.8777     0.7247     0.1134
A_3     C     0.8197     0.9324     0.5335
A_3     C     0.7267     0.0779     0.6002
A_0     C     0.0419     0.2106     0.4666
A_2     C     0.2897     0.2318     0.5233
A_2     C     0.1535     0.0435     0.755
A_3     C     0.5181     0.8711     0.7709
A_2     C     0.0316     0.9671     0.3178
A_0     C     0.5949     0.2228     0.0168
A_3     C     0.7621     0.2744     0.4605
A_2     C     0.2016     0.5046     0.6632
A_0     C     0.916     0.5565     0.0001
A_3     C     0.1263     0.235     0.5656
A_0     C     0.1441     0.6726     0.5793
A_2     C     0.3926     0.4463     0.8327
A_0     C     0.4915     0.4977     0.6728
A_0     C     0.7123     0.354     0.2359
A_1     C     0.879     0.7804     0.6867
A_1     C     0.6334     0.8617     0.5972
A_1     C     0.3048     0.1212     0.087
A_0     C     0.4229     0.7663     0.0017
A_3     C     0.6159     0.7133     0.1348
A_1     C     0.5078     0.4946     0.837
A_0     C     0.3316     0.6296     0.8481
