MAT-65

loop_
_symmetry_equiv_pos_as_xyz
  x,y,z
_cell_length_a          34.3745
_cell_length_b          19.2254
_cell_length_c          40.6245
_cell_angle_alpha       90.0000
_cell_angle_beta        90.0000
_cell_angle_gamma       90.0000
loop_
_atom_site_label
_atom_site_type_symbol
_atom_site_fract_x
_atom_site_fract_y
_atom_site_fract_z
A_3     C     0.3408     0.1865     0.1677
A_0     C     0.5726     0.2147     0.4282
A_3     C     0.4094     0.3921     0.8397
A_0     C     0.2204     0.7398     0.8194
A_1     C     0.1351     0.9543     0.0536
A_1     C     0.8186     0.9712     0.5301
A_3     C     0.3944     0.5548     0.5506
A_3     C     0.6001     0.7989     0.4461
A_3     C     0.9005     0.2141     0.6148
A_3     C     0.0184     0.5077     0.1761
A_3     C     0.21     0.9355     0.8594
A_3     C     0.7478     0.8876     0.4023
A_3     C     0.5606     0.5263     0.959
A_3     C     0.5927     0.8351     0.9998
A_3     C     0.9932     0.6475     0.502
A_3     C     0.8699     0.7892     0.322
