MAT-69

loop_
_symmetry_equiv_pos_as_xyz
  x,y,z
_cell_length_a          35.6907
_cell_length_b          22.4303
_cell_length_c          39.9466
_cell_angle_alpha       90.0000
_cell_angle_beta        90.0000
_cell_angle_gamma       90.0000
loop_
_atom_site_label
_atom_site_type_symbol
_atom_site_fract_x
_atom_site_fract_y
_atom_site_fract_z
A_3     C     0.4115     0.1182     0.0586
A_0     C     0.5699     0.2049     0.4275
A_3     C     0.3666     0.3382     0.8694
A_0     C     0.0443     0.9112     0.7734
A_1     C     0.0248     0.9583     0.0463
A_1     C     0.8731     0.9893     0.57
A_3     C     0.3391     0.5435     0.4015
A_3     C     0.3973     0.572     0.6971
A_3     C     0.7953     0.1029     0.047
A_3     C     0.4079     0.6322     0.5494
A_3     C     0.1131     0.5055     0.6009
A_3     C     0.4865     0.4128     0.6551
A_3     C     0.4036     0.169     0.8658
A_3     C     0.1019     0.9971     0.1093
A_3     C     0.6992     0.2163     0.9024
A_3     C     0.4866     0.9007     0.3854
A_3     C     0.0232     0.4471     0.7546
A_3     C     0.9867     0.7218     0.0354
A_3     C     0.8858     0.8547     0.1858
A_3     C     0.8699     0.4575     0.3069
A_3     C     0.9517     0.1329     0.399
A_3     C     0.8187     0.0588     0.2852
A_3     C     0.1609     0.8799     0.9199
A_3     C     0.0943     0.7425     0.01
A_3     C     0.9314     0.9195     0.2026
A_3     C     0.1049     0.2592     0.9858
A_3     C     0.1063     0.5141     0.6153
A_3     C     0.7356     0.3619     0.8038
A_3     C     0.0712     0.7931     0.0854
A_3     C     0.8503     0.6921     0.4642
A_3     C     0.6699     0.1827     0.3249
A_3     C     0.3909     0.1832     0.3353
A_3     C     0.0014     0.1822     0.3601
A_3     C     0.927     0.7258     0.1837
A_3     C     0.1841     0.0544     0.5538
A_3     C     0.0715     0.9159     0.4589
A_3     C     0.1015     0.5591     0.3575
A_3     C     0.4786     0.6228     0.5421
A_3     C     0.7299     0.5361     0.4728
A_3     C     0.1293     0.8328     0.172
A_3     C     0.5904     0.113     0.3585
A_3     C     0.1163     0.7639     0.2418
A_3     C     0.596     0.2422     0.3367
A_3     C     0.1543     0.5335     0.3082
A_3     C     0.1735     0.5695     0.7758
A_3     C     0.8083     0.638     0.4601
A_3     C     0.0982     0.7598     0.1226
A_3     C     0.6901     0.669     0.1753
A_3     C     0.3989     0.3004     0.2617
A_3     C     0.3464     0.9977     0.0175
A_3     C     0.0294     0.6737     0.2257
A_3     C     0.9774     0.8128     0.5037
A_3     C     0.6605     0.5818     0.5651
A_3     C     0.7946     0.0391     0.1594
A_3     C     0.113     0.0054     0.6512
A_3     C     0.9128     0.2243     0.0578
A_3     C     0.0286     0.8283     0.9188
A_3     C     0.0983     0.445     0.017
A_3     C     0.6811     0.4546     0.824
A_3     C     0.7044     0.6993     0.5756
A_3     C     0.123     0.1451     0.9258
A_3     C     0.724     0.1296     0.5828
A_3     C     0.0764     0.181     0.0757
A_3     C     0.7495     0.2724     0.5678
A_3     C     0.0674     0.9579     0.9658
A_3     C     0.1803     0.7544     0.7906
A_3     C     0.2264     0.7295     0.7186
A_3     C     0.924     0.5436     0.5241
A_3     C     0.6211     0.1286     0.0475
A_3     C     0.0523     0.7458     0.2565
A_3     C     0.6753     0.3919     0.6475
A_3     C     0.6338     0.1053     0.315
A_3     C     0.4964     0.3056     0.2077
A_3     C     0.4262     0.0857     0.1243
A_3     C     0.4191     0.6785     0.3305
A_3     C     0.2386     0.5504     0.2001
A_3     C     0.2297     0.067     0.7788
A_3     C     0.6487     0.3682     0.7746
A_3     C     0.6727     0.1381     0.4474
A_3     C     0.0989     0.8333     0.9389
A_3     C     0.0773     0.8013     0.035
A_3     C     0.8222     0.0657     0.7129
A_3     C     0.7553     0.3385     0.8678
A_3     C     0.6246     0.6972     0.6362
A_3     C     0.8946     0.722     0.6869
A_3     C     0.8782     0.8955     0.7927
A_3     C     0.6003     0.0467     0.8405
A_3     C     0.6969     0.432     0.8772
A_3     C     0.1173     0.4574     0.134
A_3     C     0.757     0.5016     0.6246
A_3     C     0.9273     0.4292     0.5383
A_3     C     0.8437     0.4105     0.7194
A_3     C     0.3935     0.3531     0.1208
A_3     C     0.5528     0.7486     0.492
A_3     C     0.9567     0.4232     0.1646
A_3     C     0.6704     0.2454     0.5118
A_3     C     0.964     0.0018     0.5344
A_3     C     0.8847     0.0415     0.1941
A_3     C     0.8027     0.7982     0.337
A_3     C     0.7717     0.7063     0.8305
A_3     C     0.0645     0.1406     0.0053
A_3     C     0.6688     0.005     0.4381
A_3     C     0.077     0.7357     0.2388
A_3     C     0.7267     0.2098     0.8478
A_3     C     0.565     0.9033     0.7726
A_3     C     0.5792     0.1759     0.9292
A_3     C     0.2724     0.5558     0.3435
A_3     C     0.6517     0.838     0.0157
A_3     C     0.4233     0.5081     0.0599
A_3     C     0.7779     0.6335     0.8537
A_3     C     0.4964     0.4061     0.0729
A_3     C     0.9756     0.2157     0.7804
A_3     C     0.0648     0.2467     0.0176
A_3     C     0.0614     0.4562     0.9108
A_3     C     0.0515     0.272     0.0195
A_3     C     0.2693     0.11     0.3181
A_3     C     0.8941     0.2548     0.0759
A_3     C     0.0199     0.4506     0.9633
A_3     C     0.7992     0.8279     0.7515
A_3     C     0.0641     0.5768     0.0695
A_3     C     0.7876     0.4937     0.6794
A_3     C     0.0921     0.8908     0.1137
A_3     C     0.2465     0.8778     0.8776
A_3     C     0.3375     0.6078     0.5738
A_3     C     0.9597     0.2782     0.4897
A_3     C     0.4286     0.0689     0.3742
A_3     C     0.8681     0.2172     0.6005
A_3     C     0.0946     0.4615     0.0145
A_3     C     0.8534     0.3868     0.2633
A_3     C     0.7593     0.5092     0.3023
A_3     C     0.9953     0.0328     0.9619
A_3     C     0.8073     0.0534     0.744
A_3     C     0.6263     0.7655     0.1261
A_3     C     0.2286     0.5453     0.4299
A_3     C     0.9107     0.8616     0.5793
A_3     C     0.1228     0.3513     0.4481
A_3     C     0.9968     0.1027     0.3083
A_3     C     0.9288     0.6344     0.6505
A_3     C     0.7371     0.0026     0.4865
A_3     C     0.9941     0.5743     0.671
A_3     C     0.9545     0.0916     0.8559
A_3     C     0.2265     0.1364     0.7898
A_3     C     0.8156     0.8158     0.8515
A_3     C     0.7517     0.6928     0.8385
A_3     C     0.823     0.6249     0.5354
A_3     C     0.8088     0.8616     0.7358
A_3     C     0.6383     0.1734     0.8142
A_3     C     0.2477     0.1535     0.6472
A_3     C     0.3992     0.9159     0.4252
A_3     C     0.1737     0.672     0.6588
A_3     C     0.4275     0.1374     0.3006
A_3     C     0.4742     0.1526     0.0753
A_3     C     0.0421     0.2568     0.3066
A_3     C     0.1174     0.4446     0.6548
A_3     C     0.9105     0.3327     0.2303
A_3     C     0.3449     0.1559     0.6634
A_3     C     0.1289     0.7311     0.7531
A_3     C     0.6338     0.2084     0.6035
A_3     C     0.3827     0.3455     0.1797
A_3     C     0.5505     0.7646     0.4296
A_3     C     0.4411     0.5039     0.4982
A_3     C     0.1649     0.9468     0.7851
A_3     C     0.3066     0.0424     0.8134
A_3     C     0.2667     0.5811     0.2369
A_3     C     0.4095     0.3671     0.2554
A_3     C     0.639     0.3126     0.5014
A_3     C     0.3451     0.705     0.6804
A_3     C     0.565     0.4486     0.2408
A_3     C     0.6009     0.9494     0.4659
A_3     C     0.9259     0.0855     0.4964
A_3     C     0.4673     0.0147     0.3911
A_3     C     0.3069     0.6741     0.9932
A_3     C     0.2033     0.9865     0.7134
A_3     C     0.9161     0.5852     0.3724
A_3     C     0.2936     0.0301     0.312
A_3     C     0.8987     0.2609     0.901
A_3     C     0.9824     0.687     0.4463
A_3     C     0.198     0.0795     0.7428
A_3     C     0.9016     0.6306     0.3822
A_3     C     0.7395     0.6914     0.7736
A_3     C     0.4766     0.396     0.5589
A_3     C     0.0787     0.2005     0.2341
A_3     C     0.2596     0.6516     0.7371
A_3     C     0.4039     0.9296     0.4878
A_3     C     0.8695     0.5507     0.0658
