MAT-84

loop_
_symmetry_equiv_pos_as_xyz
  x,y,z
_cell_length_a          26.3705
_cell_length_b          44.5641
_cell_length_c          36.1154
_cell_angle_alpha       90.0000
_cell_angle_beta        90.0000
_cell_angle_gamma       90.0000
loop_
_atom_site_label
_atom_site_type_symbol
_atom_site_fract_x
_atom_site_fract_y
_atom_site_fract_z
A_1     C     0.6162     0.2918     0.7572
A_3     C     0.2239     0.6614     0.8607
A_1     C     0.4125     0.0582     0.6151
A_2     C     0.6346     0.8023     0.6418
A_1     C     0.0875     0.5705     0.6512
A_2     C     0.7412     0.077     0.2878
A_0     C     0.7257     0.893     0.2065
A_0     C     0.3692     0.1571     0.3293
A_0     C     0.0044     0.6218     0.5841
A_3     C     0.9031     0.1416     0.4101
A_1     C     0.1168     0.8619     0.9383
A_2     C     0.8823     0.8787     0.826
A_1     C     0.2195     0.2134     0.2091
A_1     C     0.6323     0.7752     0.2016
A_1     C     0.7048     0.851     0.3054
A_3     C     0.7711     0.7521     0.1332
A_1     C     0.9748     0.845     0.5451
A_0     C     0.4468     0.5422     0.4752
A_2     C     0.6977     0.7571     0.7671
A_1     C     0.1635     0.5466     0.3599
A_2     C     0.1753     0.0452     0.4195
A_3     C     0.176     0.3042     0.482
A_1     C     0.8098     0.0675     0.8071
A_3     C     0.3557     0.8406     0.2988
A_2     C     0.6196     0.5631     0.0687
A_2     C     0.0779     0.8449     0.2041
A_2     C     0.549     0.8748     0.4743
A_0     C     0.4705     0.549     0.3304
A_0     C     0.9386     0.8503     0.6009
A_2     C     0.5296     0.0234     0.7127
A_1     C     0.224     0.1022     0.3279
A_0     C     0.3687     0.1975     0.5434
A_3     C     0.8167     0.8854     0.7994
A_1     C     0.3802     0.2437     0.314
A_3     C     0.6059     0.119     0.1855
A_1     C     0.7546     0.5083     0.4875
A_2     C     0.2041     0.0672     0.6352
A_3     C     0.3246     0.3101     0.7537
A_1     C     0.8753     0.993     0.1062
A_0     C     0.0869     0.8669     0.9155
A_0     C     0.2893     0.947     0.6218
A_1     C     0.7783     0.7665     0.0209
A_1     C     0.2387     0.1623     0.8632
A_0     C     0.348     0.7873     0.4563
A_0     C     0.034     0.2441     0.1091
A_2     C     0.7473     0.6963     0.6418
A_3     C     0.0126     0.3165     0.4934
A_3     C     0.3267     0.1177     0.1193
A_2     C     0.7921     0.13     0.9519
A_1     C     0.8142     0.632     0.9622
A_3     C     0.3467     0.2165     0.9694
A_1     C     0.6585     0.9225     0.0178
A_2     C     0.889     0.7676     0.0541
A_1     C     0.7339     0.1731     0.3055
A_0     C     0.9815     0.7684     0.5619
A_1     C     0.9577     0.8726     0.1011
A_3     C     0.533     0.1609     0.2003
A_0     C     0.4948     0.4478     0.4274
A_0     C     0.4179     0.7867     0.2583
A_3     C     0.5585     0.1158     0.3665
A_0     C     0.303     0.7903     0.3008
A_2     C     0.6794     0.6223     0.7987
A_3     C     0.4898     0.4508     0.7233
A_1     C     0.6976     0.4929     0.6151
A_3     C     0.4009     0.9577     0.1051
A_3     C     0.1789     0.4984     0.827
A_2     C     0.9771     0.8565     0.8656
A_0     C     0.7536     0.4963     0.7859
A_3     C     0.0207     0.7361     0.3241
A_1     C     0.4687     0.1548     0.9872
A_0     C     0.8835     0.5189     0.5718
A_2     C     0.6728     0.5953     0.3528
A_2     C     0.8506     0.0547     0.185
A_1     C     0.5454     0.3681     0.7783
A_3     C     0.5884     0.0052     0.7174
A_0     C     0.8413     0.4354     0.8762
A_2     C     0.7553     0.3598     0.1222
A_2     C     0.1223     0.9509     0.974
A_3     C     0.9923     0.8161     0.4321
A_3     C     0.2549     0.4713     0.4688
A_3     C     0.4054     0.5034     0.9664
A_0     C     0.8819     0.6432     0.9626
A_0     C     0.3466     0.7632     0.4601
A_3     C     0.2612     0.9494     0.5855
A_1     C     0.3316     0.8001     0.1097
A_0     C     0.3943     0.9049     0.8751
A_1     C     0.1702     0.7506     0.8482
A_1     C     0.9195     0.924     0.6461
A_2     C     0.9652     0.2256     0.8538
A_1     C     0.0104     0.2422     0.9338
A_2     C     0.2276     0.331     0.2339
A_1     C     0.9808     0.9269     0.8675
A_2     C     0.9641     0.4092     0.7521
A_3     C     0.7924     0.8524     0.8052
A_3     C     0.0096     0.2425     0.5518
A_3     C     0.4865     0.6689     0.7753
A_2     C     0.4797     0.0739     0.8728
A_2     C     0.5609     0.6297     0.0915
A_3     C     0.0389     0.7676     0.9645
A_3     C     0.0504     0.788     0.8591
A_2     C     0.7011     0.3934     0.8138
A_2     C     0.4312     0.925     0.4128
A_1     C     0.2642     0.6433     0.2857
A_2     C     0.5648     0.7811     0.9564
A_1     C     0.5064     0.5321     0.6775
A_0     C     0.9645     0.57     0.5674
A_3     C     0.6382     0.0683     0.7438
A_3     C     0.2018     0.5247     0.5891
A_0     C     0.6212     0.8407     0.1548
A_2     C     0.6013     0.8418     0.7179
A_3     C     0.7899     0.4102     0.3177
A_3     C     0.3759     0.8961     0.3817
A_3     C     0.9684     0.6293     0.0031
A_1     C     0.3838     0.4546     0.0146
A_1     C     0.3426     0.0168     0.0555
A_3     C     0.0381     0.3518     0.2708
A_0     C     0.6614     0.2744     0.2269
A_3     C     0.5704     0.3492     0.9124
A_1     C     0.4145     0.2526     0.4499
A_3     C     0.8331     0.9563     0.6071
A_1     C     0.3562     0.4225     0.4422
A_2     C     0.1128     0.885     0.1947
A_3     C     0.8711     0.2996     0.0419
A_3     C     0.8175     0.5805     0.4346
A_2     C     0.0833     0.9942     0.1574
A_0     C     0.0855     0.8648     0.6143
A_3     C     0.2794     0.0075     0.9123
A_1     C     0.9845     0.3916     0.9717
A_3     C     0.4689     0.9031     0.2279
A_1     C     0.1781     0.7545     0.9587
A_2     C     0.4914     0.9667     0.1966
A_2     C     0.4922     0.1615     0.6003
A_2     C     0.3615     0.7221     0.6818
A_0     C     0.372     0.0426     0.2499
A_3     C     0.6824     0.4899     0.8249
A_2     C     0.1063     0.0563     0.043
A_1     C     0.8675     0.5054     0.9701
A_1     C     0.5808     0.5529     0.686
A_0     C     0.8722     0.9519     0.7832
A_1     C     0.8309     0.7403     0.0942
A_3     C     0.3193     0.8555     0.2074
A_1     C     0.4947     0.1308     0.0745
A_0     C     0.9259     0.3316     0.4207
A_1     C     0.8607     0.1297     0.5918
A_3     C     0.1362     0.9238     0.3431
A_3     C     0.471     0.6187     0.4052
A_3     C     0.8153     0.7077     0.2638
A_3     C     0.6352     0.4083     0.411
A_1     C     0.6358     0.2411     0.3319
A_2     C     0.8054     0.4507     0.1102
A_1     C     0.4621     0.1169     0.4019
A_3     C     0.8161     0.0529     0.7797
A_0     C     0.1504     0.2807     0.0084
A_1     C     0.4308     0.3781     0.6507
A_3     C     0.1087     0.4858     0.7546
A_3     C     0.8768     0.8773     0.3972
A_2     C     0.8789     0.9578     0.2074
A_0     C     0.633     0.3696     0.2227
A_1     C     0.837     0.5639     0.8039
A_0     C     0.7915     0.3351     0.7271
A_3     C     0.4044     0.7059     0.9954
A_0     C     0.4134     0.169     0.0686
A_0     C     0.0498     0.2614     0.2964
A_3     C     0.9633     0.3952     0.1094
A_3     C     0.626     0.2471     0.0533
A_2     C     0.5733     0.1245     0.6865
A_2     C     0.5384     0.7453     0.8309
A_1     C     0.7908     0.1944     0.097
A_1     C     0.0399     0.9534     0.2935
A_0     C     0.749     0.8216     0.7136
A_0     C     0.5582     0.4543     0.2754
A_2     C     0.8696     0.1515     0.4351
A_2     C     0.1861     0.1878     0.7102
A_3     C     0.8162     0.4235     0.0335
A_2     C     0.4652     0.2777     0.6371
A_0     C     0.8613     0.0294     0.2853
A_1     C     0.024     0.287     0.5395
A_0     C     0.6824     0.5384     0.7676
A_1     C     0.029     0.6694     0.4292
A_0     C     0.6608     0.6024     0.6182
A_1     C     0.1028     0.415     0.9183
A_2     C     0.1718     0.0237     0.1624
A_3     C     0.4136     0.1428     0.355
A_1     C     0.4541     0.9253     0.9086
A_2     C     0.3264     0.5338     0.9025
A_2     C     0.5743     0.0835     0.2717
A_0     C     0.5685     0.2383     0.4585
A_2     C     0.5112     0.9701     0.7443
A_0     C     0.6382     0.3462     0.5504
A_0     C     0.3341     0.8706     0.9853
A_3     C     0.6671     0.0034     0.704
A_0     C     0.7632     0.4246     0.4832
A_3     C     0.1836     0.8054     0.0642
A_2     C     0.3591     0.6266     0.687
A_2     C     0.4398     0.1007     0.1475
A_3     C     0.3451     0.176     0.8701
A_2     C     0.4902     0.1399     0.5821
A_3     C     0.0047     0.5232     0.2077
A_0     C     0.6955     0.9189     0.2029
A_3     C     0.0272     0.8524     0.4722
A_2     C     0.6136     0.7407     0.8794
A_0     C     0.9377     0.2344     0.9102
A_0     C     0.8529     0.1299     0.6225
A_2     C     0.6514     0.291     0.0166
A_1     C     0.2199     0.4819     0.0847
A_3     C     0.1113     0.3038     0.1256
A_1     C     0.386     0.8484     0.5808
A_1     C     0.7707     0.628     0.969
A_3     C     0.1749     0.4141     0.7672
A_2     C     0.1725     0.8077     0.3391
A_0     C     0.1433     0.7339     0.5162
A_3     C     0.5584     0.1576     0.8482
A_2     C     0.3188     0.1887     0.8922
A_0     C     0.1292     0.0786     0.8437
A_2     C     0.9393     0.0961     0.8619
A_3     C     0.1519     0.6037     0.7061
A_0     C     0.4232     0.4544     0.1497
A_1     C     0.9899     0.2748     0.6892
A_3     C     0.4526     0.226     0.0212
A_3     C     0.4902     0.2668     0.2967
A_2     C     0.6221     0.317     0.9421
A_3     C     0.6922     0.3551     0.519
A_3     C     0.1965     0.1356     0.7122
A_3     C     0.6117     0.2829     0.8318
A_3     C     0.1792     0.6238     0.5342
A_3     C     0.3882     0.1409     0.6275
A_1     C     0.3167     0.3872     0.4338
A_1     C     0.5893     0.8771     0.8462
A_3     C     0.4411     0.9988     0.9482
A_1     C     0.3876     0.1819     0.1532
A_1     C     0.166     0.3952     0.9746
A_3     C     0.8291     0.5368     0.4416
A_0     C     0.4879     0.2752     0.282
A_3     C     0.9334     0.9506     0.8005
A_3     C     0.5456     0.6871     0.4372
A_3     C     0.0717     0.6744     0.4603
A_2     C     0.9728     0.1482     0.0244
A_0     C     0.9111     0.0298     0.1073
A_0     C     0.1628     0.2243     0.0286
A_3     C     0.9595     0.3692     0.0769
A_3     C     0.4757     0.9333     0.6559
A_2     C     0.6163     0.9233     0.9697
A_3     C     0.034     0.74     0.263
A_0     C     0.7606     0.8509     0.3443
A_1     C     0.5355     0.3665     0.47
A_0     C     0.6799     0.799     0.4638
A_1     C     0.1928     0.4444     0.1696
A_0     C     0.9934     0.8068     0.5419
A_3     C     0.9902     0.9482     0.4529
A_3     C     0.7143     0.2282     0.0913
A_1     C     0.8786     0.8839     0.1749
A_0     C     0.7225     0.3909     0.3542
A_3     C     0.3306     0.6246     0.8496
A_1     C     0.9679     0.0593     0.5823
A_1     C     0.3091     0.0099     0.7652
A_1     C     0.8398     0.0125     0.2539
A_3     C     0.1926     0.9577     0.5735
A_0     C     0.1358     0.8509     0.9942
A_3     C     0.8084     0.368     0.4321
A_2     C     0.4022     0.8604     0.3914
A_2     C     0.2584     0.1161     0.2137
A_3     C     0.7451     0.7338     0.0354
A_0     C     0.7249     0.8117     0.4274
A_2     C     0.7132     0.7984     0.1918
A_1     C     0.3433     0.7392     0.334
A_0     C     0.2261     0.2932     0.0544
A_2     C     0.0165     0.4472     0.987
A_3     C     0.2341     0.3013     0.8651
A_3     C     0.6851     0.114     0.1159
A_0     C     0.3522     0.9313     0.6779
A_2     C     0.9612     0.283     0.3464
A_3     C     0.7847     0.9791     0.0322
A_3     C     0.4759     0.1782     0.6511
A_3     C     0.0571     0.3979     0.3725
A_3     C     0.8442     0.291     0.0736
A_3     C     0.3589     0.9743     0.7916
A_3     C     0.259     0.0058     0.8297
A_3     C     0.6678     0.3379     0.477
A_3     C     0.6809     0.24     0.9433
A_3     C     0.116     0.3927     0.1846
A_3     C     0.1995     0.2117     0.8119
A_3     C     0.5704     0.2837     0.8369
A_3     C     0.7449     0.2204     0.6441
A_3     C     0.1557     0.0658     0.571
A_3     C     0.3768     0.2027     0.0823
A_3     C     0.8447     0.8742     0.349
A_3     C     0.8684     0.1356     0.2733
A_3     C     0.0912     0.256     0.7326
A_3     C     0.7381     0.2987     0.0342
A_3     C     0.5482     0.9851     0.2618
A_3     C     0.8371     0.8491     0.739
A_3     C     0.814     0.2072     0.2672
A_3     C     0.5396     0.4125     0.5762
A_3     C     0.1173     0.0235     0.8276
A_3     C     0.0073     0.2194     0.1407
A_3     C     0.6424     0.0738     0.9758
A_3     C     0.7696     0.4161     0.6643
A_3     C     0.3658     0.9866     0.886
A_3     C     0.0322     0.4843     0.3944
A_3     C     0.6181     0.0493     0.0438
A_3     C     0.8066     0.2348     0.294
A_3     C     0.1763     0.0625     0.6879
A_3     C     0.8435     0.7674     0.0839
A_3     C     0.7788     0.8509     0.8055
A_3     C     0.8605     0.7386     0.9743
A_3     C     0.3293     0.7591     0.1266
A_3     C     0.9835     0.246     0.9811
A_3     C     0.6002     0.052     0.8233
A_3     C     0.9591     0.7709     0.0172
A_3     C     0.6266     0.7155     0.1954
A_3     C     0.55     0.6986     0.9393
A_3     C     0.0027     0.739     0.2729
A_3     C     0.0747     0.0139     0.816
A_3     C     0.9301     0.8948     0.7005
A_3     C     0.647     0.3125     0.7707
A_3     C     0.3218     0.511     0.365
A_3     C     0.7772     0.8043     0.443
A_3     C     0.5736     0.4106     0.8365
A_3     C     0.9234     0.0691     0.6846
A_3     C     0.283     0.9039     0.8293
A_3     C     0.7678     0.7154     0.7744
A_3     C     0.8543     0.048     0.4957
A_3     C     0.2985     0.0124     0.4416
A_3     C     0.7788     0.0891     0.4886
A_3     C     0.3404     0.2264     0.7865
A_3     C     0.484     0.9997     0.5668
A_3     C     0.4628     0.7539     0.4686
A_3     C     0.0196     0.7773     0.981
A_3     C     0.3683     0.3658     0.7479
A_3     C     0.729     0.4274     0.6004
A_3     C     0.6241     0.3413     0.5424
A_3     C     0.5617     0.8527     0.974
A_3     C     0.558     0.6779     0.5384
A_3     C     0.6956     0.5061     0.9104
A_3     C     0.587     0.7613     0.8948
A_3     C     0.6604     0.5355     0.9016
A_3     C     0.9696     0.4811     0.4919
A_3     C     0.6137     0.9472     0.0332
A_3     C     0.351     0.2014     0.598
A_3     C     0.9877     0.8656     0.5488
A_3     C     0.7902     0.2258     0.8746
A_3     C     0.7142     0.3422     0.1562
A_3     C     0.725     0.3017     0.2348
A_3     C     0.9406     0.8394     0.9172
A_3     C     0.2907     0.8703     0.0606
A_3     C     0.356     0.5243     0.7524
A_3     C     0.8859     0.8309     0.1755
A_3     C     0.8159     0.3301     0.9063
A_3     C     0.8298     0.8597     0.7653
A_3     C     0.0409     0.7162     0.5056
A_3     C     0.0598     0.8365     0.0691
A_3     C     0.2232     0.1668     0.7972
A_3     C     0.1102     0.043     0.9326
A_3     C     0.3178     0.136     0.7336
A_3     C     0.2376     0.5669     0.0511
A_3     C     0.8433     0.8324     0.3115
A_3     C     0.1314     0.0279     0.3535
A_3     C     0.08     0.2513     0.1216
A_3     C     0.2455     0.2506     0.961
A_3     C     0.6212     0.4534     0.5742
A_3     C     0.0027     0.5331     0.497
A_3     C     0.8369     0.5188     0.9626
A_3     C     0.9206     0.6859     0.953
A_3     C     0.4501     0.3185     0.6123
A_3     C     0.803     0.1245     0.5622
A_3     C     0.7913     0.8903     0.9166
A_3     C     0.4149     0.9655     0.7301
A_3     C     0.4573     0.7837     0.3728
A_3     C     0.1258     0.3595     0.0175
A_3     C     0.8078     0.9649     0.3792
A_3     C     0.7266     0.7769     0.1629
A_3     C     0.9914     0.5302     0.8925
A_3     C     0.4524     0.8332     0.9867
A_3     C     0.8344     0.4556     0.8863
A_3     C     0.9455     0.188     0.5532
A_3     C     0.1748     0.7979     0.3988
A_3     C     0.3631     0.3521     0.6101
A_3     C     0.13     0.2561     0.2575
A_3     C     0.9719     0.4785     0.9485
A_3     C     0.2287     0.1585     0.5253
A_3     C     0.1582     0.6352     0.2205
A_3     C     0.5124     0.3767     0.4514
A_3     C     0.7492     0.0328     0.7443
A_3     C     0.3542     0.2872     0.4981
A_3     C     0.8428     0.5213     0.0311
A_3     C     0.1894     0.0069     0.381
A_3     C     0.4154     0.9166     0.852
A_3     C     0.4594     0.2694     0.2946
A_3     C     0.1362     0.6136     0.6241
A_3     C     0.011     0.1128     0.6236
A_3     C     0.9865     0.2669     0.068
A_3     C     0.4829     0.082     0.0265
A_3     C     0.2067     0.488     0.1747
A_3     C     0.7027     0.6721     0.7265
A_3     C     0.9179     0.3744     0.241
A_3     C     0.5485     0.8338     0.6918
A_3     C     0.4349     0.6931     0.0475
A_3     C     0.7804     0.6518     0.4823
A_3     C     0.0628     0.4135     0.06
A_3     C     0.7151     0.3127     0.5928
A_3     C     0.792     0.119     0.7678
A_3     C     0.2114     0.2235     0.8322
A_3     C     0.5891     0.5552     0.5478
A_3     C     0.1171     0.5867     0.1839
A_3     C     0.5646     0.7845     0.8745
A_3     C     0.1865     0.7162     0.9877
A_3     C     0.1381     0.0125     0.4382
A_3     C     0.0797     0.7248     0.6121
A_3     C     0.8214     0.5634     0.9913
A_3     C     0.0159     0.7152     0.7762
A_3     C     0.3005     0.286     0.4586
A_3     C     0.5254     0.4914     0.0622
A_3     C     0.7284     0.2657     0.8331
A_3     C     0.0281     0.907     0.153
A_3     C     0.6208     0.5637     0.2469
A_3     C     0.803     0.3287     0.7354
A_3     C     0.5626     0.6445     0.0985
A_3     C     0.118     0.6789     0.0744
A_3     C     0.977     0.5502     0.9429
A_3     C     0.526     0.1592     0.396
A_3     C     0.9532     0.7364     0.1623
A_3     C     0.0163     0.7792     0.1237
A_3     C     0.8596     0.9094     0.9251
A_3     C     0.778     0.1964     0.308
A_3     C     0.6816     0.2427     0.024
A_3     C     0.2468     0.8979     0.9343
A_3     C     0.6763     0.3745     0.3661
A_3     C     0.8342     0.8164     0.1465
A_3     C     0.644     0.7301     0.9161
A_3     C     0.0092     0.6433     0.5538
A_3     C     0.9492     0.8738     0.2333
A_3     C     0.8102     0.9243     0.35
A_3     C     0.1866     0.6834     0.2586
A_3     C     0.4866     0.7437     0.5151
A_3     C     0.6467     0.1741     0.3403
A_3     C     0.4498     0.0632     0.7816
A_3     C     0.9845     0.731     0.6628
A_3     C     0.7852     0.1441     0.9691
A_3     C     0.845     0.6969     0.0738
A_3     C     0.3466     0.5458     0.6717
A_3     C     0.2543     0.4858     0.4268
A_3     C     0.5775     0.5714     0.7147
A_3     C     0.073     0.9519     0.0862
A_3     C     0.1282     0.2067     0.7568
A_3     C     0.501     0.6534     0.3994
A_3     C     0.4694     0.3929     0.4738
A_3     C     0.7223     0.2261     0.4987
A_3     C     0.0846     0.1627     0.8558
A_3     C     0.2414     0.0956     0.878
A_3     C     0.7617     0.3355     0.5013
A_3     C     0.703     0.4531     0.8379
A_3     C     0.0764     0.0278     0.6594
A_3     C     0.0005     0.6467     0.895
A_3     C     0.6584     0.3398     0.3173
A_3     C     0.8563     0.8252     0.4025
A_3     C     0.9784     0.6531     0.9082
A_3     C     0.9399     0.0887     0.6048
A_3     C     0.3381     0.6242     0.0709
A_3     C     0.6965     0.3061     0.8299
A_3     C     0.8381     0.3444     0.3397
A_3     C     0.1436     0.0733     0.4057
A_3     C     0.4487     0.7126     0.1614
A_3     C     0.6361     0.413     0.3815
A_3     C     0.2831     0.1019     0.8235
A_3     C     0.5279     0.4704     0.7569
A_3     C     0.6025     0.6098     0.1321
A_3     C     0.3089     0.194     0.4345
A_3     C     0.9919     0.9061     0.9716
A_3     C     0.5749     0.9621     0.5661
A_3     C     0.8917     0.3982     0.8643
A_3     C     0.7852     0.1484     0.1063
A_3     C     0.0415     0.9405     0.5026
A_3     C     0.1496     0.018     0.0373
A_3     C     0.7149     0.8157     0.3349
A_3     C     0.2862     0.191     0.4261
A_3     C     0.4527     0.9151     0.1
A_3     C     0.1406     0.4964     0.7153
A_3     C     0.7026     0.2525     0.1947
A_3     C     0.3984     0.4171     0.3459
A_3     C     0.7583     0.3272     0.3313
A_3     C     0.3047     0.4187     0.5814
A_3     C     0.8213     0.6426     0.258
A_3     C     0.6082     0.4035     0.1735
A_3     C     0.2982     0.3921     0.1485
A_3     C     0.5439     0.7775     0.646
A_3     C     0.6402     0.1557     0.6502
A_3     C     0.6609     0.1831     0.628
A_3     C     0.6164     0.8057     0.8856
A_3     C     0.6157     0.5449     0.8431
A_3     C     0.7821     0.6152     0.4475
A_3     C     0.0927     0.0488     0.2301
A_3     C     0.2858     0.619     0.2913
A_3     C     0.1338     0.154     0.8789
A_3     C     0.7786     0.8542     0.3637
A_3     C     0.358     0.3685     0.2245
A_3     C     0.117     0.4326     0.6843
A_3     C     0.754     0.2237     0.1696
A_3     C     0.0462     0.6168     0.6537
A_3     C     0.4621     0.1929     0.0297
A_3     C     0.2097     0.9153     0.8607
A_3     C     0.7275     0.7428     0.9994
A_3     C     0.5948     0.3757     0.5904
A_3     C     0.9857     0.3501     0.2277
A_3     C     0.8322     0.4914     0.7054
A_3     C     0.4016     0.3858     0.7852
A_3     C     0.0708     0.5311     0.6691
A_3     C     0.0451     0.1547     0.6066
A_3     C     0.5231     0.1352     0.4049
A_3     C     0.26     0.8813     0.2681
A_3     C     0.6237     0.8582     0.0828
A_3     C     0.0961     0.0381     0.1243
A_3     C     0.0852     0.5516     0.454
A_3     C     0.1612     0.8483     0.2562
A_3     C     0.19     0.8121     0.9433
A_3     C     0.0237     0.0016     0.2741
A_3     C     0.5939     0.9494     0.1306
A_3     C     0.4509     0.9655     0.0274
A_3     C     0.2188     0.7115     0.0435
