MAT-55

loop_
_symmetry_equiv_pos_as_xyz
  x,y,z
_cell_length_a          37.3144
_cell_length_b          35.7238
_cell_length_c          49.6728
_cell_angle_alpha       90.0000
_cell_angle_beta        90.0000
_cell_angle_gamma       90.0000
loop_
_atom_site_label
_atom_site_type_symbol
_atom_site_fract_x
_atom_site_fract_y
_atom_site_fract_z
A_1     C     0.7117     0.9469     0.2931
A_0     C     0.9165     0.6182     0.4638
A_0     C     0.3534     0.9701     0.0521
A_2     C     0.6308     0.3998     0.213
A_1     C     0.886     0.2181     0.829
A_1     C     0.9452     0.0528     0.1423
A_3     C     0.3708     0.3136     0.8247
A_3     C     0.0726     0.4254     0.177
A_0     C     0.3823     0.7764     0.35
A_3     C     0.7879     0.2889     0.8571
A_1     C     0.2836     0.8117     0.7278
A_2     C     0.706     0.8579     0.462
A_1     C     0.7406     0.2631     0.1532
A_0     C     0.7863     0.063     0.4761
A_3     C     0.3241     0.3222     0.0904
A_0     C     0.3641     0.7529     0.7535
A_2     C     0.4103     0.1774     0.2838
A_1     C     0.8144     0.8416     0.9861
A_2     C     0.3406     0.4952     0.9152
A_0     C     0.0601     0.4985     0.1866
A_3     C     0.2755     0.3965     0.2855
A_2     C     0.5534     0.5365     0.5062
A_2     C     0.256     0.6341     0.6979
A_0     C     0.7676     0.3902     0.3323
A_3     C     0.4734     0.5903     0.7955
A_0     C     0.3759     0.9155     0.9614
A_0     C     0.6842     0.2924     0.3673
A_2     C     0.4051     0.8581     0.1639
A_0     C     0.8109     0.6672     0.6807
A_0     C     0.0663     0.0562     0.3467
A_0     C     0.1718     0.3901     0.8592
A_3     C     0.404     0.2995     0.8153
A_2     C     0.7923     0.1041     0.9007
A_1     C     0.0122     0.2186     0.415
A_0     C     0.3207     0.1469     0.6077
A_2     C     0.0579     0.3683     0.841
A_0     C     0.0508     0.3656     0.9548
A_1     C     0.9998     0.3929     0.6614
A_1     C     0.03     0.8683     0.2803
A_0     C     0.9547     0.1801     0.1661
A_1     C     0.6405     0.33     0.0025
A_1     C     0.7773     0.3051     0.4535
A_2     C     0.2969     0.9742     0.2309
A_3     C     0.7762     0.9013     0.8264
A_1     C     0.8408     0.2996     0.3313
A_1     C     0.3966     0.7744     0.206
A_3     C     0.5396     0.8929     0.9705
A_2     C     0.9176     0.7886     0.1822
A_0     C     0.8075     0.2561     0.694
A_2     C     0.8803     0.1338     0.4123
A_3     C     0.1338     0.3974     0.6631
A_0     C     0.7166     0.8798     0.1506
A_2     C     0.1578     0.9966     0.1447
A_1     C     0.446     0.0116     0.77
A_3     C     0.6562     0.1251     0.4113
A_0     C     0.3864     0.2445     0.4708
A_3     C     0.724     0.4448     0.8684
A_1     C     0.2948     0.4976     0.89
A_2     C     0.8984     0.051     0.393
A_2     C     0.8949     0.1643     0.9181
A_2     C     0.3614     0.9239     0.6691
A_1     C     0.1441     0.8339     0.2026
A_1     C     0.9631     0.9044     0.3809
A_3     C     0.1932     0.8739     0.7013
A_1     C     0.9355     0.041     0.0466
A_1     C     0.5102     0.7605     0.0225
A_1     C     0.2588     0.1803     0.7966
A_1     C     0.7002     0.8131     0.9318
A_2     C     0.0341     0.06     0.3165
A_0     C     0.7748     0.8236     0.9828
A_3     C     0.3728     0.0898     0.1073
A_0     C     0.899     0.2241     0.7129
A_2     C     0.3448     0.4273     0.9346
A_3     C     0.0286     0.6131     0.8026
A_0     C     0.304     0.9149     0.932
A_1     C     0.5829     0.3995     0.8391
A_3     C     0.6075     0.5256     0.3359
A_0     C     0.6794     0.459     0.6115
A_3     C     0.2627     0.151     0.2137
A_0     C     0.6887     0.4283     0.822
A_3     C     0.4353     0.6536     0.1045
A_3     C     0.6874     0.9279     0.0226
A_0     C     0.9378     0.2353     0.2225
A_1     C     0.4483     0.0782     0.5269
A_2     C     0.1238     0.9612     0.4974
A_2     C     0.2174     0.9691     0.8943
A_3     C     0.9105     0.6901     0.8349
A_3     C     0.8484     0.7005     0.2773
A_3     C     0.402     0.9265     0.4794
A_0     C     0.5039     0.3489     0.6962
A_3     C     0.5276     0.8879     0.6728
A_0     C     0.419     0.4076     0.4744
A_3     C     0.3835     0.7047     0.5747
A_2     C     0.5359     0.3682     0.1095
A_0     C     0.8318     0.3877     0.5735
A_1     C     0.8295     0.6279     0.0072
A_2     C     0.1718     0.5283     0.72
A_2     C     0.1691     0.3464     0.2883
A_2     C     0.6682     0.691     0.046
A_0     C     0.8012     0.8287     0.5028
A_2     C     0.3948     0.2423     0.9834
A_0     C     0.5766     0.791     0.9583
A_3     C     0.041     0.3301     0.1546
A_3     C     0.1892     0.5342     0.702
A_3     C     0.4959     0.0273     0.5675
A_1     C     0.5054     0.1137     0.2711
A_3     C     0.7799     0.0502     0.4624
A_2     C     0.0938     0.6306     0.0426
A_3     C     0.1483     0.6237     0.431
A_3     C     0.7581     0.6528     0.8237
A_2     C     0.5733     0.2435     0.3774
A_3     C     0.4866     0.24     0.4802
A_1     C     0.8468     0.2476     0.4192
A_3     C     0.4456     0.3806     0.7395
A_2     C     0.9439     0.6419     0.6685
A_1     C     0.0819     0.5812     0.5261
A_0     C     0.2997     0.8558     0.4731
A_1     C     0.238     0.6216     0.1246
A_3     C     0.7924     0.6449     0.1657
A_3     C     0.5087     0.9502     0.3905
A_1     C     0.7693     0.5991     0.5895
A_1     C     0.3644     0.3319     0.8137
A_3     C     0.844     0.0582     0.0366
A_2     C     0.8634     0.2656     0.7192
A_2     C     0.9129     0.7136     0.6179
A_2     C     0.4293     0.722     0.3545
A_2     C     0.8669     0.7841     0.6168
A_0     C     0.1551     0.3096     0.5602
A_3     C     0.6897     0.8111     0.9962
A_2     C     0.6359     0.2085     0.1659
A_1     C     0.4165     0.0174     0.3359
A_1     C     0.6631     0.6935     0.0506
A_0     C     0.8335     0.6119     0.6715
A_3     C     0.0702     0.1546     0.6657
A_3     C     0.4157     0.4902     0.6791
A_0     C     0.6517     0.1181     0.7045
A_1     C     0.9741     0.6705     0.9011
A_0     C     0.145     0.5197     0.0539
A_1     C     0.1521     0.746     0.5952
A_1     C     0.7305     0.7475     0.4977
A_0     C     0.3849     0.1808     0.0994
A_2     C     0.3138     0.5954     0.6239
A_3     C     0.572     0.0495     0.4618
A_0     C     0.9525     0.9219     0.255
A_1     C     0.2109     0.1677     0.0715
A_1     C     0.4258     0.353     0.4847
A_3     C     0.8475     0.4654     0.1304
A_2     C     0.249     0.8417     0.6638
A_1     C     0.006     0.4671     0.9077
A_1     C     0.6653     0.9297     0.396
A_2     C     0.7519     0.4236     0.8008
A_0     C     0.549     0.7806     0.385
A_1     C     0.5084     0.0837     0.5707
A_3     C     0.8729     0.2348     0.8913
A_2     C     0.6809     0.7432     0.042
A_1     C     0.4899     0.863     0.8363
A_2     C     0.2329     0.5375     0.1407
A_2     C     0.4489     0.3846     0.0017
A_2     C     0.3377     0.8026     0.8317
A_0     C     0.2261     0.8111     0.6301
A_1     C     0.7748     0.8842     0.1113
A_1     C     0.21     0.8532     0.3556
A_2     C     0.3593     0.6411     0.7422
A_3     C     0.0331     0.3781     0.459
A_3     C     0.2982     0.3617     0.5437
A_2     C     0.766     0.0968     0.667
A_3     C     0.6749     0.4449     0.2423
A_2     C     0.7727     0.6721     0.7049
A_2     C     0.7757     0.6112     0.2313
A_0     C     0.6004     0.3809     0.4275
A_2     C     0.8694     0.3229     0.9153
A_0     C     0.2405     0.5541     0.937
A_0     C     0.6804     0.426     0.2451
A_1     C     0.8159     0.4603     0.9181
A_1     C     0.3649     0.0951     0.6473
A_0     C     0.6839     0.7803     0.6765
A_1     C     0.4287     0.1536     0.2755
A_2     C     0.9003     0.9969     0.1083
A_3     C     0.1772     0.319     0.063
A_2     C     0.3733     0.5215     0.314
A_2     C     0.9881     0.5558     0.1871
A_3     C     0.0765     0.3059     0.7341
A_2     C     0.2654     0.8222     0.6069
A_3     C     0.3179     0.3705     0.3772
A_3     C     0.6221     0.7645     0.1117
A_2     C     0.0874     0.7649     0.6041
A_3     C     0.149     0.8913     0.8074
A_2     C     0.9207     0.5577     0.1137
A_0     C     0.5     0.9609     0.9604
A_2     C     0.7558     0.9862     0.0043
A_2     C     0.5658     0.1438     0.9333
A_2     C     0.2062     0.8784     0.6981
A_1     C     0.3584     0.8068     0.1636
A_1     C     0.3903     0.6867     0.5073
A_2     C     0.7032     0.2331     0.6975
A_1     C     0.9072     0.0253     0.2229
A_2     C     0.1649     0.7099     0.7068
A_2     C     0.5476     0.2801     0.0526
A_3     C     0.2201     0.9336     0.3046
A_3     C     0.8548     0.8763     0.4878
A_0     C     0.7932     0.1725     0.6553
A_2     C     0.9678     0.6126     0.4356
A_3     C     0.9051     0.8047     0.5596
A_1     C     0.3786     0.6718     0.6792
A_0     C     0.4953     0.6204     0.1417
A_1     C     0.4753     0.1638     0.5567
A_3     C     0.8673     0.8179     0.3687
A_2     C     0.8278     0.652     0.1958
A_3     C     0.9096     0.1342     0.9008
A_3     C     0.6834     0.6232     0.9338
A_2     C     0.1769     0.6385     0.7196
A_2     C     0.0021     0.8065     0.7498
A_0     C     0.8793     0.6079     0.406
A_3     C     0.542     0.3932     0.5136
A_0     C     0.7381     0.2112     0.8779
A_1     C     0.3549     0.3967     0.6321
A_0     C     0.2933     0.2041     0.1101
A_2     C     0.2032     0.8152     0.8826
A_3     C     0.4444     0.6525     0.6412
A_1     C     0.2157     0.9976     0.3841
A_1     C     0.587     0.3554     0.636
A_1     C     0.4768     0.6276     0.2655
A_1     C     0.7318     0.6227     0.7585
A_0     C     0.5587     0.9068     0.5205
A_2     C     0.5268     0.0582     0.2119
A_1     C     0.3532     0.4783     0.4737
A_0     C     0.9817     0.6921     0.5454
A_0     C     0.4049     0.7699     0.151
A_2     C     0.9905     0.2355     0.0339
A_2     C     0.1644     0.2495     0.4469
A_3     C     0.7318     0.0061     0.3084
A_3     C     0.3186     0.9287     0.8219
A_1     C     0.334     0.2963     0.3765
A_0     C     0.5891     0.4402     0.5415
A_3     C     0.6039     0.4894     0.801
A_2     C     0.9992     0.4313     0.1711
A_0     C     0.4515     0.7275     0.0757
A_3     C     0.2643     0.7764     0.9974
A_0     C     0.5376     0.6144     0.5398
A_2     C     0.4305     0.0681     0.7025
A_2     C     0.7237     0.4818     0.528
A_3     C     0.7653     0.86     0.5078
A_0     C     0.7057     0.6438     0.4944
A_3     C     0.3805     0.1345     0.4813
A_0     C     0.0522     0.1974     0.3365
A_1     C     0.2372     0.2479     0.188
A_3     C     0.5342     0.4571     0.7904
A_0     C     0.6122     0.1665     0.9709
A_0     C     0.5181     0.7744     0.5011
A_1     C     0.2565     0.5805     0.9432
A_0     C     0.5451     0.0239     0.0754
A_0     C     0.9702     0.6389     0.6767
A_1     C     0.466     0.0267     0.9676
A_3     C     0.3052     0.7045     0.519
A_3     C     0.7895     0.6195     0.7236
A_1     C     0.3841     0.0591     0.6194
A_2     C     0.8446     0.5173     0.1409
A_2     C     0.8427     0.776     0.5646
A_0     C     0.7343     0.3956     0.0474
A_1     C     0.7239     0.1781     0.4186
A_2     C     0.6255     0.3213     0.1951
A_2     C     0.8548     0.7168     0.8538
A_2     C     0.3066     0.644     0.2378
A_0     C     0.0496     0.4963     0.4976
A_2     C     0.9721     0.2659     0.3463
A_2     C     0.6488     0.4695     0.8194
A_2     C     0.8369     0.7978     0.5051
A_1     C     0.0793     0.0964     0.6197
A_1     C     0.1333     0.2117     0.2899
A_1     C     0.915     0.3106     0.4758
A_3     C     0.3655     0.7961     0.6478
A_2     C     0.6481     0.3937     0.8638
A_1     C     0.7675     0.1506     0.5089
A_3     C     0.5184     0.6932     0.0822
A_2     C     0.9289     0.1884     0.5575
A_1     C     0.6786     0.0847     0.5096
A_3     C     0.1677     0.7451     0.2355
A_3     C     0.7078     0.9631     0.2829
A_0     C     0.0238     0.9976     0.5467
A_1     C     0.7032     0.105     0.2346
A_0     C     0.9486     0.3336     0.0522
A_0     C     0.0914     0.0369     0.4294
A_3     C     0.0341     0.736     0.4335
A_2     C     0.1542     0.7939     0.1134
A_1     C     0.5627     0.3638     0.5624
A_1     C     0.1449     0.2375     0.2005
A_0     C     0.7569     0.9602     0.9365
A_2     C     0.524     0.287     0.1555
A_0     C     0.5306     0.4072     0.3033
A_1     C     0.3873     0.7469     0.7181
A_0     C     0.4794     0.7202     0.5242
A_2     C     0.5671     0.3146     0.4844
A_2     C     0.7307     0.8191     0.0422
A_3     C     0.7227     0.961     0.5698
A_1     C     0.2051     0.7026     0.7584
A_0     C     0.3815     0.4175     0.9247
A_1     C     0.783     0.2437     0.8753
A_2     C     0.9634     0.6579     0.4291
A_2     C     0.6529     0.7563     0.5363
A_3     C     0.0995     0.2391     0.3865
A_1     C     0.1613     0.4338     0.6231
A_2     C     0.9177     0.4731     0.5628
A_0     C     0.6993     0.7122     0.6878
A_0     C     0.1398     0.6987     0.1001
A_3     C     0.8628     0.323     0.5285
A_1     C     0.4418     0.0093     0.5952
A_3     C     0.0868     0.516     0.9483
A_0     C     0.9327     0.4126     0.6762
A_1     C     0.0851     0.232     0.9111
A_1     C     0.2701     0.8296     0.2319
A_0     C     0.7225     0.0241     0.4478
A_3     C     0.3969     0.5773     0.203
A_0     C     0.2606     0.0651     0.9215
A_0     C     0.3584     0.4709     0.3325
A_3     C     0.5082     0.1875     0.8673
A_2     C     0.8762     0.2052     0.102
A_0     C     0.1982     0.3722     0.6226
A_1     C     0.7729     0.567     0.7121
A_3     C     0.7517     0.0418     0.7013
A_2     C     0.7127     0.3241     0.6151
A_2     C     0.9441     0.4612     0.3521
A_1     C     0.2172     0.1924     0.4504
A_0     C     0.6841     0.2174     0.4409
A_1     C     0.4863     0.4076     0.5722
A_1     C     0.8755     0.597     0.4609
A_2     C     0.5772     0.5952     0.0112
A_0     C     0.3022     0.2718     0.3909
A_3     C     0.2585     0.1763     0.8668
A_3     C     0.9849     0.7477     0.6638
A_2     C     0.43     0.6065     0.2775
A_1     C     0.6128     0.2499     0.9055
A_1     C     0.1652     0.8147     0.7216
A_0     C     0.4381     0.2443     0.9329
A_0     C     0.2881     0.4727     0.3295
A_1     C     0.0407     0.3438     0.0006
A_1     C     0.6696     0.925     0.9309
A_0     C     0.1369     0.0468     0.6518
A_3     C     0.8733     0.3656     0.5886
A_3     C     0.3035     0.6217     0.5752
A_2     C     0.5466     0.5047     0.0735
A_0     C     0.1695     0.1248     0.8587
A_3     C     0.4779     0.9836     0.9877
A_0     C     0.0272     0.6067     0.5847
A_0     C     0.376     0.9516     0.6916
A_1     C     0.6303     0.5097     0.5764
A_3     C     0.4574     0.7251     0.1984
A_0     C     0.7859     0.7007     0.75
A_0     C     0.9778     0.6636     0.0054
A_3     C     0.6969     0.0654     0.4413
A_3     C     0.6635     0.0497     0.549
A_0     C     0.1386     0.2502     0.5575
A_2     C     0.2696     0.1809     0.627
A_2     C     0.2072     0.1497     0.7387
A_3     C     0.5504     0.8957     0.8388
A_2     C     0.0327     0.0048     0.3695
A_0     C     0.597     0.3073     0.0842
A_3     C     0.7644     0.2207     0.3447
A_2     C     0.0458     0.6964     0.7613
A_0     C     0.8528     0.4886     0.0043
A_3     C     0.0199     0.089     0.6425
A_0     C     0.2812     0.5934     0.5519
A_2     C     0.3357     0.3891     0.9356
A_0     C     0.3984     0.571     0.7324
A_0     C     0.7111     0.3664     0.2384
A_1     C     0.8983     0.8001     0.7878
A_1     C     0.6678     0.7878     0.7284
A_1     C     0.446     0.2581     0.0289
A_0     C     0.3107     0.8313     0.1019
A_3     C     0.5857     0.707     0.2298
A_1     C     0.6916     0.4921     0.7609
A_0     C     0.2337     0.5849     0.8074
A_1     C     0.9039     0.2383     0.4943
A_1     C     0.3409     0.9881     0.3559
A_1     C     0.91     0.7836     0.6378
A_3     C     0.7586     0.1191     0.1073
A_1     C     0.183     0.2913     0.438
A_2     C     0.1929     0.0966     0.4874
A_3     C     0.9726     0.8782     0.1026
A_0     C     0.2806     0.7397     0.239
A_0     C     0.4353     0.4735     0.4751
A_2     C     0.7848     0.0503     0.4855
A_1     C     0.8183     0.8721     0.5786
A_1     C     0.5419     0.1881     0.7752
A_3     C     0.1797     0.5789     0.4587
A_3     C     0.3644     0.75     0.1627
A_0     C     0.105     0.7012     0.8968
A_2     C     0.5143     0.6247     0.7793
A_1     C     0.3984     0.7717     0.8611
A_2     C     0.5849     0.2274     0.1874
A_3     C     0.4488     0.8222     0.9358
A_3     C     0.9127     0.0211     0.1852
A_3     C     0.5638     0.1115     0.2418
A_0     C     0.545     0.2418     0.4085
A_0     C     0.2676     0.624     0.4761
A_2     C     0.5931     0.0992     0.806
A_2     C     0.0257     0.5198     0.9421
A_2     C     0.9328     0.7116     0.904
A_0     C     0.7226     0.4598     0.813
A_3     C     0.3196     0.8105     0.7568
A_0     C     0.6094     0.8058     0.9629
A_2     C     0.812     0.3895     0.8114
A_3     C     0.4322     0.2552     0.2956
A_0     C     0.1914     0.4763     0.9637
A_2     C     0.6411     0.94     0.7001
A_0     C     0.6002     0.382     0.3617
A_1     C     0.1277     0.8562     0.4116
A_1     C     0.0937     0.4235     0.5997
A_0     C     0.4945     0.4245     0.7614
A_0     C     0.7335     0.2911     0.1577
A_0     C     0.0058     0.9938     0.1602
A_0     C     0.2349     0.5462     0.4508
A_3     C     0.6888     0.7591     0.5691
A_0     C     0.3446     0.7789     0.3369
A_2     C     0.9332     0.2714     0.2067
A_0     C     0.8287     0.2577     0.461
A_3     C     0.271     0.3376     0.8412
A_0     C     0.5029     0.0029     0.5898
A_0     C     0.1274     0.2077     0.0328
A_0     C     0.5696     0.7953     0.0428
A_2     C     0.875     0.3615     0.3146
A_0     C     0.3868     0.7993     0.2888
A_2     C     0.4523     0.6855     0.2006
A_0     C     0.4472     0.3286     0.2546
A_3     C     0.2231     0.9663     0.668
A_0     C     0.4796     0.8235     0.6927
A_0     C     0.9476     0.2595     0.5416
A_2     C     0.1444     0.6006     0.5584
A_0     C     0.3354     0.089     0.4073
A_3     C     0.7637     0.4407     0.7007
A_1     C     0.4396     0.2238     0.2214
A_3     C     0.624     0.2336     0.401
A_0     C     0.9924     0.0812     0.1589
A_1     C     0.5917     0.6099     0.3382
A_1     C     0.356     0.564     0.5492
A_1     C     0.8313     0.0105     0.3998
A_1     C     0.6077     0.0036     0.0348
A_1     C     0.4624     0.2318     0.2652
A_1     C     0.4792     0.3462     0.4979
A_1     C     0.0566     0.8455     0.8633
A_1     C     0.6765     0.5852     0.4924
A_1     C     0.2634     0.9784     0.1639
A_1     C     0.0725     0.3186     0.7531
A_1     C     0.2012     0.628     0.7438
A_1     C     0.7682     0.1158     0.285
A_1     C     0.7449     0.2959     0.6249
A_1     C     0.3892     0.8738     0.0913
A_1     C     0.1686     0.1209     0.9726
A_1     C     0.939     0.7771     0.5077
A_1     C     0.1222     0.8978     0.9085
A_1     C     0.4742     0.9881     0.8071
A_1     C     0.6397     0.341     0.2182
A_1     C     0.5454     0.6919     0.8316
A_1     C     0.7735     0.7994     0.653
A_1     C     0.6053     0.8417     0.0902
A_1     C     0.2994     0.0297     0.6491
A_1     C     0.6191     0.3261     0.729
A_1     C     0.837     0.3715     0.0561
A_1     C     0.8223     0.5169     0.0804
A_1     C     0.1125     0.0794     0.8
A_1     C     0.9025     0.9347     0.6341
A_1     C     0.3946     0.4004     0.2508
A_1     C     0.102     0.2136     0.1345
A_1     C     0.9524     0.5501     0.2851
A_1     C     0.3819     0.7673     0.3042
A_1     C     0.6579     0.672     0.4487
A_1     C     0.4236     0.4342     0.5207
A_1     C     0.9669     0.6215     0.7835
A_1     C     0.8186     0.3739     0.9472
A_1     C     0.7453     0.4813     0.9339
A_1     C     0.2231     0.8978     0.5714
A_1     C     0.7351     0.3157     0.4689
A_1     C     0.8042     0.9655     0.3917
A_1     C     0.863     0.0247     0.9421
A_1     C     0.3345     0.1805     0.2278
A_1     C     0.2382     0.1114     0.938
A_1     C     0.753     0.8505     0.8805
A_1     C     0.4758     0.0945     0.585
A_1     C     0.1048     0.756     0.4356
A_1     C     0.9555     0.3026     0.2228
A_1     C     0.858     0.0038     0.4944
A_1     C     0.2239     0.7757     0.2019
A_1     C     0.1571     0.0206     0.6189
A_1     C     0.4829     0.5915     0.5979
A_1     C     0.5919     0.8906     0.7399
A_1     C     0.5058     0.3499     0.1702
A_1     C     0.8485     0.0126     0.3874
A_1     C     0.6335     0.9142     0.916
A_1     C     0.6263     0.5881     0.2269
A_1     C     0.1347     0.1537     0.2297
A_1     C     0.5097     0.6649     0.5665
A_1     C     0.7117     0.0936     0.2329
A_1     C     0.579     0.021     0.7097
A_1     C     0.614     0.8327     0.2809
A_1     C     0.0836     0.4283     0.5148
A_1     C     0.7642     0.8505     0.2051
A_1     C     0.9292     0.4742     0.3576
A_1     C     0.7836     0.3355     0.0607
A_1     C     0.3192     0.2959     0.9783
A_1     C     0.8904     0.108     0.9176
A_1     C     0.038     0.6883     0.2678
A_1     C     0.281     0.2527     0.9351
A_1     C     0.2036     0.3569     0.2643
A_1     C     0.028     0.5676     0.3722
A_1     C     0.9013     0.6524     0.489
A_1     C     0.3356     0.1693     0.2086
A_1     C     0.6102     0.218     0.6749
A_1     C     0.9305     0.0386     0.4077
A_1     C     0.7132     0.2206     0.8925
A_1     C     0.7314     0.2584     0.8974
A_1     C     0.5793     0.7228     0.9614
A_1     C     0.609     0.969     0.0446
A_1     C     0.6465     0.3307     0.6521
A_1     C     0.9178     0.7005     0.0895
A_1     C     0.5     0.0865     0.4285
A_1     C     0.8482     0.9696     0.1323
A_1     C     0.5925     0.476     0.1882
A_1     C     0.1229     0.4623     0.8433
A_1     C     0.0996     0.6152     0.8752
A_1     C     0.6706     0.1812     0.9439
A_1     C     0.4444     0.8654     0.5869
A_1     C     0.2242     0.4719     0.4869
A_1     C     0.5968     0.4785     0.5884
A_1     C     0.1369     0.3994     0.4285
A_1     C     0.2462     0.5808     0.6499
A_1     C     0.2558     0.6502     0.527
A_1     C     0.491     0.2013     0.0882
A_1     C     0.6998     0.1553     0.0033
A_1     C     0.0921     0.0255     0.3075
A_1     C     0.4177     0.8523     0.6854
A_1     C     0.6327     0.7255     0.1766
A_1     C     0.9879     0.4813     0.5984
A_1     C     0.8893     0.6018     0.1932
A_1     C     0.7991     0.1426     0.6107
A_1     C     0.0817     0.0019     0.596
A_1     C     0.9465     0.8168     0.8141
A_1     C     0.1488     0.3146     0.3713
A_1     C     0.0659     0.1059     0.2826
A_1     C     0.3353     0.9093     0.2112
A_1     C     0.6332     0.3211     0.5568
A_1     C     0.1202     0.6618     0.3255
A_1     C     0.1432     0.1339     0.6501
A_1     C     0.0963     0.0878     0.1614
A_1     C     0.4839     0.9784     0.2421
A_1     C     0.5079     0.3564     0.836
A_1     C     0.043     0.8491     0.2248
A_1     C     0.563     0.0643     0.3274
A_1     C     0.697     0.6934     0.5287
A_1     C     0.6681     0.9121     0.0384
A_1     C     0.817     0.6199     0.6174
A_1     C     0.9317     0.2206     0.5367
A_1     C     0.6334     0.7693     0.6399
A_1     C     0.7424     0.6658     0.0724
A_1     C     0.9952     0.8145     0.8905
A_1     C     0.7662     0.1654     0.3025
A_1     C     0.148     0.8435     0.7851
A_1     C     0.1897     0.1059     0.5076
A_1     C     0.198     0.9885     0.1557
A_1     C     0.4374     0.3395     0.1085
A_1     C     0.2683     0.2093     0.8619
A_1     C     0.2047     0.5489     0.5817
A_1     C     0.7047     0.9944     0.0107
A_1     C     0.508     0.8217     0.465
A_1     C     0.8688     0.4529     0.0949
A_1     C     0.5784     0.3824     0.8529
A_1     C     0.5002     0.9677     0.2805
A_1     C     0.0705     0.1151     0.0784
