MAT-87

loop_
_symmetry_equiv_pos_as_xyz
  x,y,z
_cell_length_a          29.9004
_cell_length_b          44.3142
_cell_length_c          35.0876
_cell_angle_alpha       90.0000
_cell_angle_beta        90.0000
_cell_angle_gamma       90.0000
loop_
_atom_site_label
_atom_site_type_symbol
_atom_site_fract_x
_atom_site_fract_y
_atom_site_fract_z
A_1     C     0.6634     0.4466     0.9064
A_3     C     0.3181     0.636     0.9636
A_1     C     0.4677     0.0703     0.6247
A_2     C     0.5823     0.7251     0.5979
A_1     C     0.0677     0.5444     0.5956
A_2     C     0.7505     0.0968     0.2429
A_0     C     0.8131     0.8331     0.1887
A_0     C     0.4502     0.2459     0.2401
A_0     C     0.9722     0.6073     0.5929
A_3     C     0.9451     0.069     0.3822
A_1     C     0.093     0.9753     0.7665
A_2     C     0.8965     0.9439     0.9216
A_1     C     0.237     0.2333     0.0543
A_1     C     0.7974     0.6476     0.0314
A_1     C     0.7984     0.8594     0.2279
A_3     C     0.759     0.7711     0.1109
A_1     C     0.0324     0.8423     0.6372
A_0     C     0.403     0.5657     0.6006
A_2     C     0.7163     0.7634     0.7558
A_1     C     0.2033     0.5964     0.3575
A_2     C     0.1042     0.0293     0.528
A_3     C     0.2559     0.3183     0.5153
A_1     C     0.7175     0.0582     0.8205
A_3     C     0.2761     0.668     0.2484
A_2     C     0.4531     0.6742     0.2146
A_2     C     0.1537     0.8234     0.2385
A_2     C     0.499     0.8392     0.5398
A_0     C     0.4728     0.5138     0.3007
A_0     C     0.9259     0.747     0.6815
A_2     C     0.5646     0.0036     0.8197
A_1     C     0.1368     0.1173     0.4161
A_0     C     0.4061     0.096     0.5116
A_3     C     0.8706     0.7906     0.7771
A_1     C     0.507     0.2426     0.3622
A_3     C     0.6223     0.187     0.2071
A_1     C     0.6291     0.5537     0.3828
A_2     C     0.3276     0.9522     0.6551
A_3     C     0.2396     0.4298     0.7782
A_1     C     0.8785     0.9635     0.0885
A_0     C     0.131     0.0023     0.8587
A_0     C     0.3683     0.8904     0.7479
A_1     C     0.8457     0.7215     0.9656
A_1     C     0.2436     0.0912     0.9114
A_0     C     0.2591     0.721     0.4379
A_0     C     0.9291     0.2644     0.1031
A_2     C     0.7925     0.8108     0.6851
A_3     C     0.018     0.2705     0.5365
A_3     C     0.1765     0.107     0.2303
A_2     C     0.8422     0.1308     0.9504
A_1     C     0.8258     0.7107     0.8841
A_3     C     0.344     0.0936     0.0217
A_1     C     0.8561     0.9881     0.1125
A_2     C     0.0119     0.7055     0.0391
A_1     C     0.6848     0.1571     0.3609
A_0     C     0.9408     0.6891     0.6271
A_1     C     0.7985     0.804     0.0017
A_3     C     0.5345     0.1228     0.1827
A_0     C     0.6494     0.4796     0.5129
A_0     C     0.4641     0.717     0.3334
A_3     C     0.6658     0.203     0.4757
A_0     C     0.302     0.6841     0.3167
A_2     C     0.5744     0.5771     0.8032
A_3     C     0.3536     0.4355     0.8222
A_1     C     0.6793     0.5131     0.5942
A_3     C     0.4045     0.0266     0.0161
A_3     C     0.2641     0.3547     0.795
A_2     C     0.1269     0.8891     0.722
A_0     C     0.7245     0.5338     0.7769
A_3     C     0.9389     0.6909     0.2996
A_1     C     0.5654     0.249     0.9496
A_0     C     0.9526     0.4939     0.4413
A_2     C     0.6754     0.512     0.3953
A_2     C     0.7033     0.9833     0.3711
A_1     C     0.6333     0.3782     0.7794
A_3     C     0.5207     0.0009     0.7576
A_0     C     0.8288     0.5254     0.028
A_2     C     0.8384     0.4149     0.0368
A_2     C     0.1756     0.9011     0.8844
A_3     C     0.1293     0.7299     0.4309
A_3     C     0.2653     0.5018     0.3731
A_3     C     0.5789     0.4901     0.8546
A_0     C     0.8828     0.5132     0.9138
A_0     C     0.5071     0.7296     0.4286
A_3     C     0.4392     0.8744     0.5661
A_1     C     0.4193     0.8058     0.0177
A_0     C     0.4611     0.9529     0.9799
A_1     C     0.0785     0.74     0.861
A_1     C     0.8314     0.8505     0.5861
A_2     C     0.9984     0.2015     0.691
A_1     C     0.1166     0.2516     0.86
A_2     C     0.2129     0.245     0.0818
A_1     C     0.1176     0.9218     0.9341
A_2     C     0.0384     0.5219     0.7284
A_3     C     0.8569     0.851     0.7549
A_3     C     0.9535     0.2718     0.5315
A_3     C     0.53     0.5853     0.957
A_2     C     0.5001     0.1225     0.0377
A_2     C     0.4454     0.5072     0.2065
A_3     C     0.9627     0.7139     0.8757
A_3     C     0.0189     0.8575     0.8023
A_2     C     0.752     0.5085     0.7096
A_2     C     0.5062     0.9358     0.3933
A_1     C     0.3281     0.5662     0.2842
A_2     C     0.556     0.6842     0.9116
A_1     C     0.5431     0.5405     0.7782
A_0     C     0.9259     0.7145     0.622
A_3     C     0.6979     0.1705     0.7005
A_3     C     0.1415     0.5562     0.4906
A_0     C     0.6436     0.7361     0.3228
A_2     C     0.4794     0.7777     0.6629
A_3     C     0.8114     0.5581     0.4642
A_3     C     0.3057     0.8182     0.3626
A_3     C     0.8699     0.6709     0.8188
A_1     C     0.2696     0.5086     0.0152
A_1     C     0.5261     0.9704     0.0372
A_3     C     0.2038     0.2066     0.1215
A_0     C     0.7582     0.1829     0.317
A_3     C     0.6451     0.3902     0.0117
A_1     C     0.5174     0.302     0.4703
A_3     C     0.718     0.9686     0.5955
A_1     C     0.3828     0.407     0.3524
A_2     C     0.2343     0.7982     0.036
A_3     C     0.9805     0.3138     0.1975
A_3     C     0.8472     0.6747     0.2626
A_2     C     0.1275     0.8549     0.3175
A_0     C     0.1322     0.8109     0.4474
A_3     C     0.176     0.0615     0.9356
A_1     C     0.943     0.2707     0.8867
A_3     C     0.5158     0.8379     0.1268
A_1     C     0.2229     0.6705     0.0369
A_2     C     0.4136     0.0906     0.1369
A_2     C     0.4846     0.1323     0.5417
A_2     C     0.3976     0.7494     0.7371
A_0     C     0.5409     0.0365     0.3154
A_3     C     0.6142     0.4439     0.7223
A_2     C     0.1137     0.114     0.0185
A_1     C     0.9638     0.4957     0.9582
A_1     C     0.4512     0.4573     0.7402
A_0     C     0.8911     0.8957     0.8922
A_1     C     0.892     0.6634     0.0846
A_3     C     0.2977     0.7169     0.0613
A_1     C     0.3563     0.1098     0.0686
A_0     C     0.7821     0.1988     0.3584
A_1     C     0.7699     0.0754     0.521
A_3     C     0.1242     0.0385     0.4336
A_3     C     0.2797     0.665     0.3047
A_3     C     0.6858     0.5712     0.2506
A_3     C     0.4792     0.4171     0.4264
A_1     C     0.6119     0.1745     0.3865
A_2     C     0.7071     0.3177     0.1793
A_1     C     0.5922     0.1821     0.3185
A_3     C     0.903     0.8918     0.6882
A_0     C     0.1797     0.2095     0.0834
A_1     C     0.404     0.4324     0.728
A_3     C     0.9812     0.561     0.6817
A_3     C     0.9957     0.7825     0.3731
A_2     C     0.8993     0.9767     0.1918
A_0     C     0.7253     0.321     0.1061
A_1     C     0.8725     0.5796     0.9353
A_0     C     0.7183     0.1949     0.7667
A_3     C     0.3903     0.5894     0.9304
A_0     C     0.4843     0.193     0.0519
A_0     C     0.1398     0.2813     0.3181
A_3     C     0.8944     0.3228     0.0067
A_3     C     0.5878     0.2618     0.1576
A_2     C     0.5037     0.2379     0.5846
A_2     C     0.6291     0.8125     0.7886
A_1     C     0.9243     0.1758     0.9721
A_1     C     0.0281     0.0118     0.4022
A_0     C     0.6265     0.7769     0.8206
A_0     C     0.4778     0.5187     0.3895
A_2     C     0.9597     0.2131     0.5457
A_2     C     0.1871     0.2991     0.564
A_3     C     0.7647     0.4069     0.9743
A_2     C     0.3478     0.3709     0.5622
A_0     C     0.0247     0.0428     0.3565
A_1     C     0.9773     0.2717     0.5366
A_0     C     0.5438     0.448     0.7198
A_1     C     0.0646     0.672     0.4533
A_0     C     0.735     0.5992     0.5453
A_1     C     0.1822     0.3328     0.7633
A_2     C     0.0698     0.0702     0.2462
A_3     C     0.384     0.1585     0.3019
A_1     C     0.5561     0.962     0.8709
A_2     C     0.1406     0.6874     0.9983
A_2     C     0.4596     0.0963     0.338
A_0     C     0.5756     0.3761     0.2771
A_2     C     0.4619     0.0222     0.7504
A_0     C     0.5598     0.3867     0.5974
A_0     C     0.1901     0.8895     0.0506
A_3     C     0.695     0.9819     0.6967
A_0     C     0.8852     0.2582     0.4461
A_3     C     0.2917     0.944     0.0678
A_2     C     0.3639     0.5897     0.691
A_2     C     0.5033     0.1557     0.0237
A_3     C     0.3717     0.1682     0.8318
A_2     C     0.5921     0.0599     0.712
A_3     C     0.0259     0.4459     0.2971
A_0     C     0.6924     0.8061     0.2195
A_3     C     0.8518     0.033     0.5383
A_2     C     0.749     0.6975     0.7997
A_0     C     0.8796     0.1335     0.0027
A_0     C     0.8534     0.0177     0.5536
A_2     C     0.7219     0.3653     0.97
A_1     C     0.1639     0.4004     0.1704
A_3     C     0.0865     0.1568     0.2249
A_1     C     0.3981     0.0386     0.5797
A_1     C     0.7852     0.6865     0.98
A_3     C     0.1629     0.5783     0.9156
A_2     C     0.2437     0.7232     0.3709
A_0     C     0.1416     0.803     0.4619
A_3     C     0.6254     0.1474     0.8493
A_2     C     0.4475     0.2057     0.8699
A_0     C     0.1166     0.0928     0.8552
A_2     C     0.9706     0.0955     0.7116
A_3     C     0.1945     0.4977     0.8214
A_0     C     0.4455     0.5584     0.1163
A_1     C     0.1024     0.2183     0.6671
A_3     C     0.5061     0.3514     0.0862
A_3     C     0.5616     0.1706     0.4312
A_2     C     0.5989     0.2729     0.0969
A_3     C     0.8581     0.3168     0.5349
A_3     C     0.2324     0.2501     0.7474
A_3     C     0.6584     0.2992     0.9518
A_3     C     0.3352     0.7496     0.5033
A_3     C     0.2987     0.9945     0.4877
A_1     C     0.3124     0.489     0.3937
A_1     C     0.7099     0.9011     0.8909
A_3     C     0.4214     0.1622     0.9145
A_1     C     0.4083     0.3337     0.996
A_1     C     0.1174     0.2875     0.9463
A_3     C     0.6814     0.6149     0.4558
A_0     C     0.4376     0.2297     0.243
A_3     C     0.8337     0.8398     0.7766
A_3     C     0.5239     0.6159     0.4548
A_3     C     0.0743     0.641     0.5704
A_2     C     0.0687     0.1262     0.0274
A_0     C     0.7556     0.0749     0.1519
A_0     C     0.1394     0.0701     0.8461
A_3     C     0.9083     0.3022     0.0934
A_3     C     0.6571     0.0118     0.6617
A_2     C     0.6248     0.9078     0.0596
A_3     C     0.113     0.8282     0.2044
A_0     C     0.7309     0.7088     0.256
A_1     C     0.5192     0.2813     0.3992
A_0     C     0.7049     0.7684     0.504
A_1     C     0.028     0.489     0.1744
A_0     C     0.1606     0.8765     0.7011
A_3     C     0.0802     0.8329     0.4505
A_3     C     0.7128     0.1696     0.072
A_1     C     0.8241     0.9889     0.0605
A_0     C     0.8255     0.4887     0.3236
A_3     C     0.3129     0.6575     0.7774
A_1     C     0.8194     0.1021     0.4617
A_1     C     0.2834     0.9147     0.9139
A_1     C     0.8039     0.982     0.2651
A_3     C     0.1556     0.9767     0.5518
A_0     C     0.2529     0.7255     0.005
A_3     C     0.8079     0.4056     0.4416
A_2     C     0.2664     0.8128     0.3602
A_2     C     0.1484     0.105     0.3209
A_3     C     0.6441     0.7436     0.9001
A_0     C     0.8045     0.7029     0.3821
A_2     C     0.722     0.7661     0.1587
A_1     C     0.2861     0.7707     0.3167
A_0     C     0.383     0.3852     0.1207
A_2     C     0.9038     0.3363     0.0184
A_3     C     0.2904     0.1594     0.9342
A_3     C     0.7174     0.2043     0.0303
A_0     C     0.2882     0.9354     0.7548
A_2     C     0.0568     0.2647     0.1544
A_3     C     0.9115     0.9492     0.0664
A_3     C     0.7938     0.8362     0.7712
A_3     C     0.2869     0.4598     0.3625
A_3     C     0.317     0.8383     0.3884
A_3     C     0.0939     0.8863     0.5303
A_3     C     0.6795     0.0937     0.6926
A_3     C     0.3189     0.2212     0.5628
A_3     C     0.5722     0.4337     0.8062
A_3     C     0.6192     0.6121     0.257
A_3     C     0.0131     0.5669     0.1835
A_3     C     0.9709     0.5773     0.3725
A_3     C     0.2307     0.422     0.2872
A_3     C     0.2655     0.8117     0.0203
A_3     C     0.6614     0.9064     0.6723
A_3     C     0.6535     0.6325     0.0603
A_3     C     0.2476     0.9125     0.71
A_3     C     0.8206     0.8403     0.4419
A_3     C     0.809     0.9927     0.9415
A_3     C     0.5797     0.7254     0.6355
A_3     C     0.6116     0.3667     0.2687
A_3     C     0.8445     0.3542     0.5342
A_3     C     0.4985     0.1093     0.7724
A_3     C     0.8893     0.5182     0.1551
A_3     C     0.3134     0.44     0.6801
A_3     C     0.998     0.1877     0.0868
A_3     C     0.6744     0.1439     0.119
A_3     C     0.6677     0.8928     0.1419
A_3     C     0.2979     0.268     0.774
A_3     C     0.7997     0.5512     0.362
A_3     C     0.0757     0.4548     0.5444
A_3     C     0.6961     0.9319     0.3503
A_3     C     0.3627     0.1781     0.2078
A_3     C     0.6443     0.1551     0.8793
A_3     C     0.8883     0.9364     0.8152
A_3     C     0.9339     0.2623     0.1591
A_3     C     0.2969     0.1006     0.3602
A_3     C     0.2351     0.6106     0.8864
A_3     C     0.5031     0.6078     0.2255
A_3     C     0.7216     0.4385     0.4958
A_3     C     0.9141     0.3725     0.2435
A_3     C     0.425     0.638     0.6941
A_3     C     0.9582     0.5004     0.7735
A_3     C     0.7518     0.0386     0.8062
A_3     C     0.193     0.8995     0.914
A_3     C     0.5466     0.309     0.0965
A_3     C     0.7679     0.038     0.3368
A_3     C     0.5836     0.826     0.5275
A_3     C     0.5798     0.7204     0.6131
A_3     C     0.0119     0.3059     0.0689
A_3     C     0.4588     0.8221     0.7867
A_3     C     0.4255     0.5863     0.8651
A_3     C     0.2418     0.6146     0.0783
A_3     C     0.2052     0.22     0.3351
A_3     C     0.128     0.2084     0.9049
A_3     C     0.2533     0.3806     0.4244
A_3     C     0.5369     0.5337     0.3633
A_3     C     0.0535     0.6811     0.0676
A_3     C     0.8861     0.936     0.8278
A_3     C     0.6608     0.7879     0.6313
A_3     C     0.0062     0.5322     0.3239
A_3     C     0.8054     0.7714     0.3984
A_3     C     0.1708     0.2299     0.5988
A_3     C     0.1676     0.4357     0.9597
A_3     C     0.0716     0.6445     0.5611
A_3     C     0.9321     0.9677     0.5732
A_3     C     0.6263     0.171     0.6499
A_3     C     0.0247     0.9759     0.2833
A_3     C     0.3103     0.0995     0.7469
A_3     C     0.8754     0.5006     0.2243
A_3     C     0.8554     0.5717     0.6238
A_3     C     0.3188     0.1276     0.3824
A_3     C     0.1325     0.7571     0.403
A_3     C     0.6101     0.7522     0.9693
A_3     C     0.2401     0.8348     0.883
A_3     C     0.4611     0.3355     0.3521
A_3     C     0.4545     0.5778     0.3165
A_3     C     0.0492     0.7299     0.5581
A_3     C     0.314     0.0546     0.2261
A_3     C     0.7828     0.7599     0.0752
A_3     C     0.42     0.9062     0.8521
A_3     C     0.9706     0.2606     0.7026
A_3     C     0.1191     0.6463     0.1264
A_3     C     0.8159     0.3448     0.8911
A_3     C     0.8942     0.6018     0.323
A_3     C     0.7229     0.4364     0.0896
A_3     C     0.9957     0.1687     0.0262
A_3     C     0.7231     0.1191     0.7478
A_3     C     0.92     0.9755     0.9371
A_3     C     0.2569     0.42     0.4793
A_3     C     0.4256     0.7023     0.0778
A_3     C     0.5873     0.8403     0.3916
A_3     C     0.8765     0.6054     0.1727
A_3     C     0.6641     0.4099     0.9301
A_3     C     0.3824     0.0444     0.6052
A_3     C     0.3308     0.7848     0.4042
A_3     C     0.322     0.7675     0.9295
A_3     C     0.2612     0.1641     0.6597
A_3     C     0.0732     0.0836     0.2964
A_3     C     0.4326     0.6268     0.5263
A_3     C     0.9676     0.5222     0.5681
A_3     C     0.4902     0.3946     0.2714
A_3     C     0.1384     0.3862     0.4075
A_3     C     0.7833     0.4014     0.1325
A_3     C     0.2402     0.6005     0.9352
A_3     C     0.5568     0.3893     0.062
A_3     C     0.0743     0.226     0.4476
A_3     C     0.1585     0.0893     0.0441
A_3     C     0.0415     0.1745     0.5845
A_3     C     0.2021     0.2606     0.1496
A_3     C     0.1452     0.939     0.1821
A_3     C     0.8685     0.2209     0.216
A_3     C     0.9272     0.2153     0.0548
A_3     C     0.2709     0.8553     0.398
A_3     C     0.2624     0.2498     0.6452
A_3     C     0.5375     0.2283     0.5736
A_3     C     0.6201     0.9856     0.6822
A_3     C     0.755     0.7093     0.6337
A_3     C     0.2679     0.2294     0.1441
A_3     C     0.6154     0.6216     0.0876
A_3     C     0.6236     0.3877     0.6101
A_3     C     0.2374     0.353     0.0771
A_3     C     0.206     0.2228     0.5113
A_3     C     0.6069     0.1041     0.514
A_3     C     0.5833     0.7346     0.9264
A_3     C     0.8137     0.5085     0.8549
A_3     C     0.8873     0.5965     0.6495
A_3     C     0.1589     0.9115     0.1464
A_3     C     0.5397     0.4552     0.2378
A_3     C     0.2571     0.7121     0.6739
A_3     C     0.7657     0.2543     0.6139
A_3     C     0.5636     0.1689     0.551
A_3     C     0.3357     0.0536     0.8498
A_3     C     0.9353     0.1261     0.9492
A_3     C     0.6105     0.3731     0.2365
A_3     C     0.4431     0.138     0.4917
A_3     C     0.7694     0.1024     0.5793
A_3     C     0.0846     0.2794     0.085
A_3     C     0.1971     0.0122     0.7562
A_3     C     0.6907     0.1571     0.0279
A_3     C     0.3756     0.396     0.3875
A_3     C     0.5004     0.0267     0.1167
A_3     C     0.235     0.1348     0.1292
A_3     C     0.363     0.8032     0.9462
A_3     C     0.8297     0.2352     0.4048
A_3     C     0.0925     0.2933     0.1342
A_3     C     0.6025     0.1769     0.7032
A_3     C     0.6953     0.9894     0.3913
A_3     C     0.5642     0.1895     0.5608
A_3     C     0.3971     0.3356     0.2649
A_3     C     0.4226     0.7334     0.923
A_3     C     0.2059     0.1359     0.157
A_3     C     0.462     0.3576     0.5867
A_3     C     0.6885     0.0629     0.2653
A_3     C     0.255     0.3471     0.7143
A_3     C     0.58     0.9518     0.0118
A_3     C     0.7594     0.0729     0.2855
A_3     C     0.3148     0.0592     0.93
A_3     C     0.5867     0.1397     0.9194
A_3     C     0.6441     0.9873     0.2764
A_3     C     0.2344     0.98     0.2534
A_3     C     0.9631     0.1829     0.1884
A_3     C     0.8644     0.8354     0.6802
A_3     C     0.6946     0.142     0.5907
A_3     C     0.7635     0.1716     0.7124
A_3     C     0.8333     0.4796     0.0103
A_3     C     0.1887     0.9814     0.8933
A_3     C     0.2481     0.4568     0.0204
A_3     C     0.7887     0.7654     0.5255
A_3     C     0.5253     0.5944     0.9302
A_3     C     0.6752     0.7275     0.1491
A_3     C     0.8948     0.1063     0.146
A_3     C     0.2192     0.3139     0.5452
A_3     C     0.5202     0.0725     0.9307
A_3     C     0.5485     0.0411     0.0907
A_3     C     0.6079     0.3805     0.7387
A_3     C     0.4689     0.77     0.9818
A_3     C     0.2998     0.549     0.0895
A_3     C     0.337     0.6129     0.1691
A_3     C     0.9088     0.712     0.3833
A_3     C     0.3139     0.959     0.4592
A_3     C     0.1996     0.9303     0.7219
A_3     C     0.608     0.0971     0.9637
A_3     C     0.0026     0.1923     0.3754
A_3     C     0.5377     0.5583     0.7378
A_3     C     0.6386     0.5409     0.0387
A_3     C     0.1754     0.9808     0.0012
A_3     C     0.9226     0.3149     0.416
A_3     C     0.7528     0.4035     0.0955
A_3     C     0.3642     0.0901     0.41
A_3     C     0.215     0.9743     0.5051
A_3     C     0.014     0.3679     0.0614
A_3     C     0.3931     0.2952     0.3173
A_3     C     0.5422     0.8118     0.3836
A_3     C     0.7349     0.1047     0.1356
A_3     C     0.1012     0.7236     0.8943
A_3     C     0.2226     0.3145     0.1447
A_3     C     0.4573     0.0201     0.4687
A_3     C     0.2592     0.2435     0.4451
A_3     C     0.8694     0.8591     0.3861
A_3     C     0.4128     0.6702     0.0188
A_3     C     0.0446     0.0145     0.2653
A_3     C     0.8316     0.359     0.7921
A_3     C     0.9364     0.0837     0.1792
A_3     C     0.1834     0.3723     0.2522
A_3     C     0.525     0.0089     0.3851
A_3     C     0.6661     0.2308     0.1066
A_3     C     0.3588     0.0237     0.3831
A_3     C     0.0025     0.8166     0.0145
A_3     C     0.5968     0.464     0.6295
A_3     C     0.1991     0.7215     0.424
A_3     C     0.6245     0.9078     0.111
A_3     C     0.3867     0.0969     0.236
A_3     C     0.1719     0.6469     0.0202
A_3     C     0.3157     0.5786     0.8105
A_3     C     0.8797     0.206     0.3442
A_3     C     0.5297     0.4569     0.4203
A_3     C     0.6851     0.7664     0.109
A_3     C     0.4338     0.8921     0.4978
A_3     C     0.0649     0.6013     0.0558
A_3     C     0.2975     0.6523     0.3157
A_3     C     0.0386     0.097     0.3446
A_3     C     0.1607     0.3053     0.5143
A_3     C     0.548     0.7622     0.649
A_3     C     0.8786     0.0242     0.0027
A_3     C     0.4996     0.374     0.4253
A_3     C     0.085     0.7502     0.1872
A_3     C     0.2472     0.2398     0.5714
A_3     C     0.6047     0.9105     0.6298
A_3     C     0.941     0.656     0.889
A_3     C     0.9224     0.9433     0.2713
A_3     C     0.0035     0.0603     0.6976
A_3     C     0.7213     0.0582     0.0384
A_3     C     0.1215     0.9885     0.453
A_3     C     0.6612     0.2513     0.031
A_3     C     0.0303     0.9115     0.0714
A_3     C     0.4275     0.6245     0.7875
A_3     C     0.1267     0.431     0.346
A_3     C     0.312     0.6139     0.8558
A_3     C     0.2208     0.6345     0.9238
A_3     C     0.7505     0.6653     0.1751
A_3     C     0.652     0.2385     0.08
A_3     C     0.6034     0.2182     0.5303
A_3     C     0.882     0.7235     0.8415
A_3     C     0.9206     0.6754     0.9222
A_3     C     0.8833     0.1047     0.3925
A_3     C     0.5521     0.3862     0.9136
A_3     C     0.6933     0.6934     0.4875
A_3     C     0.074     0.4665     0.1874
A_3     C     0.7059     0.3524     0.4737
A_3     C     0.8133     0.1834     0.2599
A_3     C     0.6085     0.5714     0.0313
A_3     C     0.6504     0.8817     0.4222
A_3     C     0.746     0.9189     0.7066
A_3     C     0.6504     0.0531     0.1297
A_3     C     0.6102     0.7295     0.9248
A_3     C     0.2299     0.5924     0.2182
A_3     C     0.7181     0.3951     0.9931
A_3     C     0.5414     0.956     0.7305
A_3     C     0.6479     0.1975     0.537
A_3     C     0.2681     0.8066     0.8449
A_3     C     0.1553     0.7408     0.8875
A_3     C     0.2473     0.2559     0.9959
A_3     C     0.6157     0.4938     0.1331
A_3     C     0.3411     0.5028     0.4864
A_3     C     0.7965     0.53     0.5093
A_3     C     0.2924     0.0988     0.9107
A_3     C     0.7805     0.6725     0.2401
A_3     C     0.4653     0.1655     0.8274
A_3     C     0.9533     0.5423     0.2725
A_3     C     0.8132     0.4344     0.5224
A_3     C     0.1231     0.3784     0.8085
A_3     C     0.8725     0.9896     0.3802
A_3     C     0.4951     0.2181     0.4308
A_3     C     0.246     0.0442     0.8471
A_3     C     0.9393     0.8607     0.6147
A_3     C     0.7901     0.1676     0.2668
A_3     C     0.0796     0.6696     0.4439
A_3     C     0.1831     0.6327     0.017
A_3     C     0.1097     0.5619     0.0644
A_3     C     0.5129     0.1577     0.8275
A_3     C     0.3363     0.162     0.6468
A_3     C     0.7473     0.9128     0.3949
A_3     C     0.2773     0.4879     0.1643
A_3     C     0.0828     0.0742     0.3937
A_3     C     0.4034     0.1336     0.2528
A_3     C     0.2369     0.341     0.4053
A_3     C     0.4994     0.8232     0.048
A_3     C     0.5625     0.8562     0.2163
A_3     C     0.6966     0.2502     0.9971
A_3     C     0.5514     0.0594     0.5437
A_3     C     0.8898     0.184     0.7771
A_3     C     0.4693     0.8216     0.9601
A_3     C     0.8229     0.6484     0.9833
A_3     C     0.031     0.3259     0.1608
A_3     C     0.4995     0.4381     0.8808
A_3     C     0.3804     0.4902     0.116
A_3     C     0.8861     0.1341     0.0313
A_3     C     0.2995     0.8393     0.1494
A_3     C     0.1695     0.6811     0.6056
A_3     C     0.6061     0.9205     0.7454
A_3     C     0.739     0.5484     0.609
A_3     C     0.8439     0.0421     0.9076
A_3     C     0.0032     0.3354     0.3734
A_3     C     0.1243     0.645     0.4794
A_3     C     0.2498     0.9084     0.925
A_3     C     0.5744     0.5477     0.2742
A_3     C     0.1287     0.2037     0.2823
A_3     C     0.8376     0.2382     0.8807
A_3     C     0.3462     0.2767     0.1072
A_3     C     0.3833     0.9278     0.4795
A_3     C     0.588     0.7839     0.477
A_3     C     0.7752     0.083     0.7503
A_3     C     0.3205     0.0029     0.65
A_3     C     0.0485     0.4762     0.0741
A_3     C     0.6673     0.5398     0.2149
A_3     C     0.0251     0.3663     0.967
A_3     C     0.5834     0.869     0.1041
A_3     C     0.1552     0.6647     0.9075
A_3     C     0.727     0.1996     0.9405
A_3     C     0.5821     0.2021     0.7912
A_3     C     0.8711     0.2777     0.8273
A_3     C     0.6414     0.7442     0.2083
A_3     C     0.4966     0.9744     0.9107
A_3     C     0.2351     0.3454     0.3733
A_3     C     0.55     0.6148     0.4714
A_3     C     0.7191     0.7846     0.8814
A_3     C     0.481     0.0859     0.1977
A_3     C     0.1887     0.9696     0.2861
A_3     C     0.4495     0.8095     0.8522
A_3     C     0.3441     0.2161     0.5258
