MAT-75

loop_
_symmetry_equiv_pos_as_xyz
  x,y,z
_cell_length_a          37.681
_cell_length_b          47.4989
_cell_length_c          32.8851
_cell_angle_alpha       90.0000
_cell_angle_beta        90.0000
_cell_angle_gamma       90.0000
loop_
_atom_site_label
_atom_site_type_symbol
_atom_site_fract_x
_atom_site_fract_y
_atom_site_fract_z
A_1     C     0.7104     0.2237     0.0509
A_3     C     0.8339     0.4886     0.7111
A_0     C     0.984     0.9303     0.7592
A_2     C     0.0727     0.3662     0.4762
A_0     C     0.4046     0.3594     0.0877
A_3     C     0.2277     0.036     0.6305
A_2     C     0.6021     0.3686     0.1884
A_3     C     0.5322     0.8504     0.7086
A_3     C     0.9548     0.9201     0.3581
A_2     C     0.8143     0.6384     0.5771
A_3     C     0.8277     0.6057     0.8971
A_2     C     0.7278     0.0469     0.6776
A_3     C     0.6516     0.4858     0.0707
A_2     C     0.5278     0.895     0.6976
A_3     C     0.5482     0.7113     0.8917
A_0     C     0.6798     0.1347     0.8611
A_3     C     0.0065     0.2844     0.7916
A_3     C     0.6191     0.1675     0.1798
A_3     C     0.4622     0.3005     0.996
A_1     C     0.6675     0.5884     0.6413
A_1     C     0.8562     0.2128     0.5645
A_1     C     0.0343     0.7286     0.1605
A_2     C     0.5801     0.9301     0.9601
A_2     C     0.5775     0.8166     0.7386
A_1     C     0.5758     0.5202     0.3973
A_3     C     0.4158     0.2345     0.6459
A_3     C     0.4449     0.6456     0.7347
A_2     C     0.3841     0.3518     0.4398
A_1     C     0.1269     0.1548     0.2921
A_3     C     0.05     0.9328     0.3467
A_1     C     0.3275     0.5922     0.7803
A_0     C     0.5883     0.5919     0.1194
A_2     C     0.7943     0.4977     0.4733
A_3     C     0.1559     0.5021     0.1982
A_3     C     0.7129     0.5635     0.8229
A_3     C     0.7073     0.6153     0.1973
A_3     C     0.2134     0.7535     0.8939
A_2     C     0.5842     0.7615     0.6072
A_3     C     0.9916     0.7954     0.225
A_3     C     0.1247     0.8727     0.8593
A_1     C     0.6831     0.0558     0.4969
A_2     C     0.6632     0.9956     0.3255
A_2     C     0.1971     0.0658     0.889
A_0     C     0.8069     0.1807     0.3557
A_3     C     0.8005     0.6185     0.439
A_2     C     0.1756     0.1285     0.7557
A_0     C     0.6834     0.3397     0.729
A_2     C     0.4318     0.3687     0.9072
A_3     C     0.4694     0.7152     0.4615
A_3     C     0.6962     0.2465     0.3439
A_2     C     0.0545     0.3267     0.2703
A_2     C     0.1798     0.0743     0.3242
A_2     C     0.8612     0.5266     0.0413
A_3     C     0.4316     0.0421     0.8614
A_0     C     0.1959     0.0173     0.6752
A_1     C     0.4331     0.2121     0.3918
A_1     C     0.7693     0.0926     0.5206
A_1     C     0.5716     0.6181     0.0927
A_3     C     0.0446     0.9608     0.1299
A_2     C     0.2895     0.5044     0.4032
A_1     C     0.7521     0.3662     0.801
A_3     C     0.9931     0.2848     0.7386
A_2     C     0.6301     0.0052     0.9568
A_0     C     0.187     0.9896     0.7395
A_0     C     0.1363     0.3028     0.193
A_3     C     0.6212     0.0965     0.9268
A_0     C     0.2891     0.6155     0.3634
A_0     C     0.7937     0.097     0.0263
A_0     C     0.6669     0.6003     0.4426
A_0     C     0.3672     0.3219     0.7682
A_3     C     0.489     0.9971     0.8189
A_2     C     0.1868     0.4259     0.6986
A_1     C     0.0878     0.041     0.4487
A_3     C     0.3691     0.2579     0.4958
A_3     C     0.3755     0.4158     0.031
A_1     C     0.3626     0.6734     0.7982
A_3     C     0.8582     0.243     0.0392
A_0     C     0.9884     0.5191     0.2319
A_1     C     0.2929     0.825     0.4145
A_1     C     0.7931     0.7263     0.9713
A_2     C     0.6851     0.9017     0.6295
A_1     C     0.0052     0.8912     0.8812
A_2     C     0.5723     0.1878     0.1215
A_2     C     0.6012     0.4439     0.0122
A_0     C     0.2933     0.6202     0.0897
A_1     C     0.6208     0.8564     0.7797
A_2     C     0.5597     0.7841     0.34
A_3     C     0.1603     0.1647     0.2254
A_3     C     0.4233     0.3689     0.0823
A_1     C     0.1709     0.8723     0.8935
A_2     C     0.9229     0.8931     0.4197
A_1     C     0.109     0.0264     0.7794
A_2     C     0.4885     0.6636     0.7244
A_2     C     0.0662     0.8796     0.4914
A_2     C     0.6886     0.0636     0.3097
A_3     C     0.2189     0.6442     0.8852
A_2     C     0.3626     0.1541     0.0743
A_1     C     0.6382     0.2771     0.1779
A_1     C     0.9467     0.6251     0.5943
A_1     C     0.6874     0.9649     0.197
A_1     C     0.4301     0.8686     0.8719
A_3     C     0.9567     0.9046     0.0838
A_3     C     0.8428     0.5028     0.513
A_3     C     0.1123     0.0291     0.8784
A_0     C     0.0525     0.6394     0.0166
A_1     C     0.097     0.9971     0.4591
A_3     C     0.598     0.4423     0.8286
A_3     C     0.7005     0.8043     0.004
A_0     C     0.7747     0.3911     0.3214
A_0     C     0.336     0.8669     0.4772
A_1     C     0.9029     0.1542     0.779
A_2     C     0.3283     0.3619     0.2721
A_0     C     0.2959     0.2697     0.3199
A_1     C     0.0867     0.7601     0.59
A_1     C     0.2942     0.3507     0.3566
A_1     C     0.9224     0.3611     0.6079
A_1     C     0.0898     0.8752     0.9017
A_2     C     0.6237     0.0342     0.8174
A_3     C     0.0308     0.8323     0.4358
A_3     C     0.0535     0.7346     0.6898
A_3     C     0.4676     0.4248     0.5466
A_2     C     0.195     0.2911     0.1702
A_0     C     0.0871     0.0317     0.0367
A_3     C     0.5791     0.0526     0.2072
A_2     C     0.0453     0.6313     0.6321
A_0     C     0.3219     0.8415     0.4493
A_1     C     0.1096     0.9963     0.2287
A_2     C     0.932     0.4854     0.0037
A_1     C     0.6725     0.2775     0.2584
A_1     C     0.1038     0.782     0.5805
A_3     C     0.2252     0.2008     0.4905
A_0     C     0.0819     0.7594     0.3677
A_3     C     0.5921     0.7488     0.8411
A_0     C     0.044     0.8994     0.9021
A_2     C     0.5844     0.6182     0.4044
A_1     C     0.1674     0.8881     0.466
A_1     C     0.5649     0.1433     0.0802
A_0     C     0.9721     0.603     0.1845
A_2     C     0.1041     0.0031     0.9257
A_2     C     0.2489     0.0666     0.1851
A_0     C     0.2209     0.2783     0.6361
A_0     C     0.5302     0.4635     0.8717
A_0     C     0.8983     0.1451     0.0024
A_2     C     0.749     0.9679     0.6232
A_2     C     0.4804     0.2817     0.5462
A_2     C     0.6537     0.3408     0.8913
A_2     C     0.1243     0.8398     0.0171
A_1     C     0.9479     0.9964     0.8525
A_3     C     0.8955     0.2696     0.8262
A_2     C     0.3757     0.2445     0.5385
A_0     C     0.203     0.9623     0.5894
A_3     C     0.82     0.3628     0.9959
A_1     C     0.5628     0.9634     0.5348
A_0     C     0.9154     0.1482     0.8947
A_3     C     0.019     0.6497     0.5493
A_2     C     0.9223     0.9192     0.1254
A_3     C     0.4446     0.6983     0.5947
A_2     C     0.9811     0.289     0.5269
A_0     C     0.0134     0.7988     0.8197
A_1     C     0.5325     0.7711     0.1428
A_0     C     0.5748     0.74     0.0087
A_2     C     0.0319     0.4397     0.0134
A_3     C     0.125     0.4318     0.3238
A_3     C     0.8627     0.7916     0.6814
A_0     C     0.8004     0.103     0.7519
A_0     C     0.6218     0.2041     0.9298
A_3     C     0.5843     0.23     0.5146
A_0     C     0.4894     0.5019     0.4877
A_2     C     0.768     0.7155     0.2151
A_0     C     0.1256     0.9509     0.0429
A_2     C     0.941     0.6945     0.9053
A_2     C     0.0489     0.7123     0.0249
A_0     C     0.3543     0.8609     0.1251
A_1     C     0.5553     0.1107     0.2216
A_0     C     0.8685     0.6877     0.4145
A_0     C     0.3171     0.3803     0.0864
A_1     C     0.367     0.8473     0.5311
A_3     C     0.6674     0.5591     0.5991
A_0     C     0.4943     0.4937     0.6173
A_1     C     0.815     0.9247     0.8158
A_0     C     0.5864     0.9649     0.7718
A_0     C     0.0807     0.1704     0.3234
A_2     C     0.8548     0.491     0.3393
A_1     C     0.7152     0.8634     0.9205
A_1     C     0.3954     0.0994     0.0491
A_1     C     0.3061     0.2424     0.0555
A_3     C     0.856     0.5345     0.7711
A_0     C     0.8333     0.4295     0.9045
A_2     C     0.1207     0.3249     0.5414
A_1     C     0.039     0.8229     0.2543
A_0     C     0.6481     0.375     0.7258
A_2     C     0.6094     0.5852     0.859
A_3     C     0.9302     0.4478     0.424
A_3     C     0.5122     0.168     0.033
A_0     C     0.8282     0.1339     0.3473
A_0     C     0.0789     0.2062     0.6993
A_2     C     0.875     0.1855     0.4377
A_1     C     0.2322     0.4852     0.6013
A_0     C     0.1374     0.6805     0.8609
A_1     C     0.0296     0.4865     0.0228
A_3     C     0.6847     0.5496     0.2212
A_0     C     0.0893     0.8155     0.0248
A_0     C     0.042     0.5082     0.7595
A_2     C     0.3541     0.893     0.7655
A_1     C     0.8534     0.7613     0.8179
A_3     C     0.3643     0.2003     0.1472
A_2     C     0.4475     0.7541     0.3168
A_1     C     0.3206     0.0027     0.3348
A_3     C     0.3042     0.379     0.8247
A_0     C     0.1862     0.6568     0.4883
A_3     C     0.6823     0.0196     0.8442
A_2     C     0.5266     0.8276     0.0779
A_2     C     0.9352     0.1194     0.447
A_2     C     0.3002     0.8314     0.2851
A_1     C     0.4066     0.5558     0.0916
A_3     C     0.7687     0.6878     0.3085
A_1     C     0.2279     0.3666     0.9038
A_2     C     0.4216     0.9434     0.9196
A_3     C     0.3008     0.5418     0.8638
A_3     C     0.3303     0.4138     0.006
A_1     C     0.3996     0.3883     0.2143
A_2     C     0.0858     0.0017     0.1075
A_1     C     0.0387     0.3268     0.7951
A_0     C     0.4281     0.3409     0.1692
A_2     C     0.2383     0.4571     0.2878
A_1     C     0.5283     0.611     0.9221
A_1     C     0.1397     0.0664     0.1691
A_3     C     0.3096     0.9637     0.4054
A_0     C     0.9223     0.5631     0.7838
A_3     C     0.4066     0.7886     0.8878
A_2     C     0.9243     0.1961     0.0566
A_0     C     0.0072     0.3838     0.4868
A_3     C     0.6088     0.3386     0.4162
A_0     C     0.7215     0.3575     0.4821
A_2     C     0.1889     0.6243     0.5351
A_3     C     0.5006     0.9141     0.2812
A_0     C     0.1026     0.8868     0.9933
A_1     C     0.6437     0.9351     0.9346
A_2     C     0.5514     0.0305     0.4367
A_1     C     0.4143     0.9779     0.1152
A_2     C     0.9101     0.6353     0.5707
A_1     C     0.3609     0.544     0.8451
A_2     C     0.2426     0.6571     0.5088
A_0     C     0.1188     0.8654     0.7884
A_2     C     0.9132     0.123     0.6053
A_0     C     0.8757     0.7893     0.9026
A_3     C     0.8682     0.7067     0.606
A_0     C     0.8671     0.4745     0.9763
A_1     C     0.1444     0.4292     0.4899
A_0     C     0.1667     0.2817     0.0954
A_1     C     0.9671     0.8128     0.4987
A_1     C     0.1954     0.5818     0.5682
A_3     C     0.692     0.992     0.8779
A_0     C     0.1005     0.2213     0.2955
A_1     C     0.9567     0.6747     0.4211
A_3     C     0.5188     0.1024     0.144
A_2     C     0.8754     0.0419     0.9857
A_2     C     0.4529     0.2506     0.6444
A_1     C     0.9917     0.779     0.51
A_2     C     0.3217     0.416     0.1076
A_3     C     0.5747     0.1957     0.4297
A_0     C     0.609     0.523     0.4472
A_2     C     0.47     0.4801     0.778
A_2     C     0.7874     0.9411     0.1228
A_1     C     0.9898     0.7429     0.4817
A_3     C     0.1087     0.3177     0.4615
A_2     C     0.4882     0.9623     0.1248
A_3     C     0.6698     0.4758     0.8881
A_0     C     0.9287     0.484     0.5107
A_3     C     0.7672     0.6456     0.4005
A_3     C     0.3845     0.406     0.8806
A_0     C     0.7511     0.5253     0.4323
A_0     C     0.7872     0.3078     0.5197
A_2     C     0.0066     0.7738     0.7348
A_3     C     0.0102     0.9925     0.251
A_3     C     0.0441     0.6773     0.3235
A_2     C     0.7188     0.0863     0.9778
A_2     C     0.9933     0.9893     0.7441
A_0     C     0.8179     0.5189     0.4641
A_2     C     0.1672     0.7289     0.3009
A_2     C     0.4498     0.7437     0.5831
A_1     C     0.3916     0.5093     0.7612
A_1     C     0.9437     0.5712     0.5578
A_3     C     0.5917     0.78     0.9524
A_0     C     0.1701     0.3787     0.7769
A_0     C     0.5854     0.9528     0.6229
A_3     C     0.1874     0.2127     0.006
A_1     C     0.5415     0.8842     0.9194
A_3     C     0.1128     0.5676     0.0588
A_2     C     0.0609     0.9446     0.5005
A_2     C     0.8963     0.9501     0.4089
A_3     C     0.9433     0.0417     0.2149
A_0     C     0.8332     0.7812     0.6514
A_3     C     0.0902     0.6766     0.8474
A_3     C     0.5657     0.4655     0.501
A_0     C     0.0289     0.6192     0.1734
A_0     C     0.3594     0.1372     0.0496
A_3     C     0.5396     0.4703     0.9582
A_0     C     0.7309     0.1382     0.2485
A_2     C     0.0108     0.807     0.3786
A_3     C     0.0952     0.2813     0.9366
A_2     C     0.6385     0.1722     0.2997
A_2     C     0.2855     0.8654     0.8519
A_1     C     0.6223     0.1241     0.3774
A_3     C     0.0652     0.0223     0.2597
A_2     C     0.1704     0.3853     0.9692
A_2     C     0.2713     0.5373     0.0535
A_2     C     0.2355     0.3518     0.2758
A_2     C     0.5651     0.8352     0.2903
A_2     C     0.644     0.6759     0.2077
A_2     C     0.1247     0.0942     0.6222
A_2     C     0.9577     0.7327     0.8344
A_2     C     0.7217     0.8802     0.3744
A_2     C     0.9436     0.0741     0.6871
A_2     C     0.5427     0.2308     0.9893
A_2     C     0.4642     0.5189     0.2584
A_2     C     0.5306     0.0332     0.1467
A_2     C     0.6117     0.1329     0.6345
A_2     C     0.901     0.9654     0.3192
A_2     C     0.9261     0.4435     0.8323
A_2     C     0.527     0.2387     0.7724
A_2     C     0.355     0.1206     0.9371
A_2     C     0.811     0.3694     0.1358
A_2     C     0.3784     0.4138     0.6271
A_2     C     0.4015     0.0253     0.632
A_2     C     0.2697     0.8615     0.4446
A_2     C     0.1908     0.4011     0.5848
A_2     C     0.636     0.113     0.8431
A_2     C     0.0184     0.049     0.2066
A_2     C     0.0149     0.0943     0.3769
A_2     C     0.3935     0.7276     0.9843
A_2     C     0.3574     0.8466     0.0191
A_2     C     0.0771     0.3351     0.0655
A_2     C     0.6516     0.9779     0.2868
A_2     C     0.2015     0.0647     0.9467
A_2     C     0.9523     0.36     0.6081
A_2     C     0.4152     0.1738     0.1763
A_2     C     0.8689     0.3861     0.9782
A_2     C     0.2636     0.0357     0.4565
A_2     C     0.8213     0.1017     0.8609
A_2     C     0.1112     0.7465     0.6374
A_2     C     0.2301     0.1782     0.867
A_2     C     0.8474     0.28     0.1409
A_2     C     0.5379     0.982     0.1487
A_2     C     0.7409     0.3064     0.3517
A_2     C     0.5435     0.4864     0.3052
A_2     C     0.7565     0.5984     0.4774
A_2     C     0.506     0.1856     0.0237
A_2     C     0.551     0.5361     0.1361
A_2     C     0.6576     0.8883     0.5101
A_2     C     0.2646     0.0846     0.1658
A_2     C     0.5197     0.232     0.8615
A_2     C     0.2799     0.9396     0.9479
A_2     C     0.5687     0.3155     0.8282
A_2     C     0.7695     0.7005     0.898
A_2     C     0.9372     0.7178     0.1573
A_2     C     0.6859     0.9036     0.9045
A_2     C     0.4431     0.3749     0.563
A_2     C     0.6766     0.5939     0.0061
A_2     C     0.4053     0.395     0.2481
A_2     C     0.8849     0.5196     0.2142
A_2     C     0.006     0.5191     0.1261
A_2     C     0.0047     0.756     0.5979
A_2     C     0.5251     0.846     0.2827
A_2     C     0.179     0.3209     0.5528
A_2     C     0.741     0.4113     0.4671
A_2     C     0.5115     0.4999     0.472
A_2     C     0.4485     0.5613     0.1164
A_2     C     0.4761     0.8154     0.7878
A_2     C     0.7274     0.7506     0.766
A_2     C     0.7543     0.1423     0.6643
A_2     C     0.0132     0.1265     0.2559
A_2     C     0.278     0.02     0.0083
A_2     C     0.4382     0.801     0.417
A_2     C     0.4053     0.6137     0.3447
A_2     C     0.8391     0.2544     0.3378
A_2     C     0.008     0.7218     0.6566
A_2     C     0.034     0.3008     0.0893
A_2     C     0.5197     0.0259     0.565
A_2     C     0.0224     0.8714     0.4584
A_2     C     0.3892     0.6412     0.1163
A_2     C     0.8866     0.41     0.0163
A_2     C     0.9028     0.1851     0.5033
A_2     C     0.3869     0.8916     0.0379
A_2     C     0.9296     0.2283     0.3461
A_2     C     0.4184     0.5856     0.3018
A_2     C     0.3354     0.0029     0.8354
A_2     C     0.2787     0.3919     0.057
A_2     C     0.6746     0.4043     0.9416
A_2     C     0.7957     0.6947     0.952
A_2     C     0.1787     0.9383     0.5385
A_2     C     0.0279     0.0693     0.3614
A_2     C     0.3194     0.4233     0.116
A_2     C     0.2863     0.0906     0.6024
A_2     C     0.1986     0.7903     0.3299
A_2     C     0.4078     0.9257     0.9566
A_2     C     0.6689     0.5293     0.2691
A_2     C     0.4315     0.5525     0.6234
A_2     C     0.5715     0.5283     0.0589
A_2     C     0.8385     0.6134     0.7301
A_2     C     0.4153     0.9286     0.3133
A_2     C     0.6626     0.4312     0.5651
A_2     C     0.9669     0.6603     0.0362
A_2     C     0.1257     0.6669     0.5872
A_2     C     0.4841     0.0558     0.524
A_2     C     0.9441     0.7684     0.4083
A_2     C     0.139     0.5091     0.5234
A_2     C     0.9042     0.8769     0.1011
A_2     C     0.9368     0.0733     0.4001
A_2     C     0.2213     0.7374     0.7125
A_2     C     0.3689     0.6204     0.4371
A_2     C     0.1789     0.0872     0.8938
A_2     C     0.3637     0.7464     0.8168
A_2     C     0.3501     0.9569     0.5719
A_2     C     0.3887     0.2749     0.3117
A_2     C     0.2915     0.2276     0.3512
A_2     C     0.0686     0.0369     0.5309
A_2     C     0.309     0.0626     0.7676
A_2     C     0.7242     0.6091     0.9078
A_2     C     0.5952     0.042     0.7988
A_2     C     0.3832     0.5388     0.9255
A_2     C     0.2166     0.9072     0.1048
A_2     C     0.7884     0.738     0.4132
A_2     C     0.446     0.2893     0.2022
A_2     C     0.6291     0.0471     0.9274
A_2     C     0.6522     0.5071     0.2516
A_2     C     0.2738     0.7845     0.1676
A_2     C     0.6221     0.634     0.8739
A_2     C     0.758     0.5023     0.8866
A_2     C     0.0004     0.3676     0.5665
A_2     C     0.6353     0.7249     0.3526
A_2     C     0.6571     0.5365     0.0109
A_2     C     0.5975     0.0062     0.4088
A_2     C     0.8539     0.4296     0.1569
A_2     C     0.0226     0.7514     0.1939
A_2     C     0.2208     0.1956     0.2017
A_2     C     0.3764     0.0343     0.5964
A_2     C     0.9489     0.3351     0.41
A_2     C     0.195     0.4312     0.9355
A_2     C     0.8754     0.6354     0.7654
A_2     C     0.324     0.6739     0.8363
A_2     C     0.9834     0.7888     0.4227
A_2     C     0.0804     0.2527     0.8105
A_2     C     0.373     0.6495     0.3426
A_2     C     0.1765     0.7387     0.0227
A_2     C     0.995     0.4543     0.7992
A_2     C     0.7052     0.71     0.606
A_2     C     0.3704     0.3582     0.8802
A_2     C     0.6617     0.8465     0.12
A_2     C     0.5078     0.3014     0.5666
A_2     C     0.1052     0.9533     0.2385
A_2     C     0.8645     0.8914     0.5227
A_2     C     0.1319     0.7841     0.0183
A_2     C     0.9229     0.2559     0.0998
A_2     C     0.2404     0.1097     0.6589
A_2     C     0.3711     0.1597     0.7758
