MAT-62

loop_
_symmetry_equiv_pos_as_xyz
  x,y,z
_cell_length_a          28.414
_cell_length_b          22.0576
_cell_length_c          44.8502
_cell_angle_alpha       90.0000
_cell_angle_beta        90.0000
_cell_angle_gamma       90.0000
loop_
_atom_site_label
_atom_site_type_symbol
_atom_site_fract_x
_atom_site_fract_y
_atom_site_fract_z
A_0     C     0.7681     0.2921     0.715
A_1     C     0.516     0.2313     0.9945
A_3     C     0.1726     0.8785     0.8059
A_2     C     0.9346     0.9203     0.3191
A_1     C     0.509     0.4461     0.1824
A_0     C     0.3839     0.4027     0.9546
A_1     C     0.3617     0.3824     0.4441
A_1     C     0.5587     0.1067     0.4942
A_0     C     0.8957     0.9589     0.6312
A_3     C     0.0045     0.5748     0.8501
A_0     C     0.7387     0.3624     0.9365
A_0     C     0.9588     0.9956     0.5309
A_1     C     0.1098     0.2127     0.8829
A_2     C     0.8581     0.7212     0.2736
A_1     C     0.5888     0.5251     0.4432
A_0     C     0.6443     0.3594     0.0307
A_0     C     0.8086     0.5189     0.672
A_3     C     0.8006     0.9509     0.2193
A_0     C     0.6711     0.0861     0.4271
A_0     C     0.6419     0.4155     0.5965
A_1     C     0.4455     0.9798     0.132
A_3     C     0.2195     0.6409     0.9707
A_2     C     0.8712     0.1767     0.8614
A_1     C     0.8164     0.9685     0.8686
A_2     C     0.0801     0.0279     0.8952
A_2     C     0.0387     0.9789     0.7118
A_0     C     0.6719     0.5168     0.246
A_3     C     0.1266     0.5201     0.8733
A_2     C     0.0833     0.9352     0.6814
A_1     C     0.1039     0.3266     0.3909
A_3     C     0.6905     0.4837     0.8403
A_3     C     0.7367     0.6112     0.4561
A_2     C     0.9674     0.7104     0.1271
A_0     C     0.8061     0.3279     0.1372
A_1     C     0.5151     0.4233     0.1898
A_2     C     0.0237     0.9525     0.1632
A_3     C     0.3384     0.9922     0.1773
A_3     C     0.8421     0.1286     0.204
A_1     C     0.626     0.4986     0.1356
A_2     C     0.804     0.3207     0.7882
A_0     C     0.8607     0.7382     0.6611
A_0     C     0.0981     0.2406     0.535
A_1     C     0.1083     0.72     0.6056
A_1     C     0.6964     0.4872     0.9094
A_2     C     0.7098     0.7529     0.0727
A_3     C     0.497     0.501     0.1333
A_1     C     0.3395     0.08     0.0214
A_0     C     0.1202     0.2741     0.354
A_3     C     0.9691     0.5697     0.6645
A_1     C     0.2877     0.5467     0.2336
A_1     C     0.0113     0.2935     0.412
A_2     C     0.704     0.9314     0.0736
A_3     C     0.9128     0.3367     0.3741
A_3     C     0.1061     0.1465     0.2724
A_3     C     0.6915     0.5526     0.6594
A_1     C     0.1263     0.2172     0.2728
A_2     C     0.8442     0.655     0.6334
A_3     C     0.0113     0.8842     0.8935
A_2     C     0.4626     0.5431     0.29
A_2     C     0.3694     0.5125     0.2197
A_1     C     0.1602     0.4343     0.5986
A_1     C     0.3188     0.707     0.9752
A_3     C     0.011     0.6664     0.4948
A_0     C     0.9234     0.9171     0.3929
A_2     C     0.0022     0.2733     0.3598
A_0     C     0.2607     0.9862     0.2449
A_0     C     0.6718     0.6617     0.0208
A_1     C     0.9424     0.3305     0.209
A_1     C     0.4378     0.9296     0.7658
A_2     C     0.3051     0.4153     0.6469
A_2     C     0.3895     0.6084     0.9962
A_3     C     0.756     0.0521     0.6798
A_1     C     0.0844     0.3439     0.0795
A_0     C     0.1722     0.1943     0.5539
A_2     C     0.4337     0.7893     0.2076
A_3     C     0.2126     0.144     0.5482
A_3     C     0.8881     0.5117     0.5244
A_0     C     0.7344     0.0593     0.1166
A_0     C     0.0564     0.0543     0.0215
A_2     C     0.5073     0.1373     0.3338
A_3     C     0.9919     0.1937     0.5893
A_1     C     0.1314     0.0207     0.7348
A_2     C     0.8491     0.7859     0.6895
A_3     C     0.3969     0.1557     0.8001
A_0     C     0.2013     0.4847     0.6125
A_0     C     0.6616     0.5267     0.2847
A_2     C     0.3066     0.6013     0.1775
A_2     C     0.8576     0.157     0.3215
A_1     C     0.4194     0.6397     0.7736
A_2     C     0.7022     0.039     0.7328
A_2     C     0.5804     0.1214     0.8889
A_3     C     0.5213     0.3367     0.086
A_2     C     0.5946     0.5615     0.0517
A_1     C     0.5814     0.8645     0.1734
A_2     C     0.1228     0.6494     0.6965
A_1     C     0.1468     0.2794     0.3554
A_3     C     0.1023     0.6767     0.1694
A_1     C     0.1855     0.9903     0.2719
A_1     C     0.6371     0.8801     0.9343
A_0     C     0.2866     0.5176     0.8627
A_3     C     0.0924     0.2052     0.707
A_1     C     0.646     0.4483     0.9673
A_2     C     0.8838     0.1821     0.5839
A_0     C     0.1555     0.8916     0.6346
A_3     C     0.4687     0.7158     0.992
A_0     C     0.8983     0.8922     0.8284
A_2     C     0.8708     0.0325     0.7498
A_0     C     0.3021     0.7038     0.9442
A_2     C     0.5898     0.3522     0.9792
A_3     C     0.0379     0.0002     0.1793
A_0     C     0.2254     0.1426     0.7579
A_2     C     0.2372     0.7128     0.5027
A_3     C     0.1908     0.3757     0.6142
A_3     C     0.6559     0.8799     0.1717
A_2     C     0.6387     0.7738     0.8941
A_0     C     0.0681     0.271     0.2248
A_3     C     0.3783     0.3524     0.2629
A_1     C     0.3027     0.7155     0.8116
A_2     C     0.7327     0.0786     0.5637
A_2     C     0.7272     0.2323     0.1316
A_2     C     0.5449     0.6538     0.7297
A_1     C     0.3171     0.6047     0.9931
A_2     C     0.4963     0.6414     0.81
A_3     C     0.3406     0.5835     0.1337
A_0     C     0.7266     0.2176     0.9467
A_0     C     0.114     0.5796     0.2164
A_2     C     0.371     0.4962     0.3151
A_3     C     0.0125     0.2162     0.2746
A_0     C     0.1875     0.6873     0.8345
A_2     C     0.6415     0.653     0.9935
A_1     C     0.3045     0.8438     0.2158
A_3     C     0.4515     0.8638     0.0334
A_1     C     0.6403     0.9085     0.265
A_2     C     0.0478     0.2921     0.5042
A_1     C     0.2992     0.5221     0.4045
A_0     C     0.343     0.6049     0.9717
A_0     C     0.9973     0.3404     0.823
A_2     C     0.0942     0.5282     0.2411
A_3     C     0.8241     0.9064     0.8498
A_0     C     0.1311     0.7585     0.776
A_1     C     0.748     0.52     0.0878
A_3     C     0.7422     0.0372     0.2321
A_3     C     0.61     0.0434     0.1327
A_0     C     0.6602     0.6363     0.0756
A_0     C     0.6342     0.9363     0.7997
A_0     C     0.5383     0.6352     0.8
A_3     C     0.7302     0.5221     0.5098
A_0     C     0.4255     0.1737     0.6334
A_0     C     0.2176     0.7042     0.592
A_1     C     0.3328     0.178     0.2856
A_2     C     0.2958     0.9552     0.1919
A_2     C     0.1692     0.2918     0.1535
A_0     C     0.813     0.0074     0.8489
A_2     C     0.2043     0.8922     0.7372
A_3     C     0.215     0.7145     0.3018
A_1     C     0.3309     0.7613     0.3055
A_0     C     0.6778     0.5206     0.5299
A_0     C     0.7869     0.1084     0.291
A_3     C     0.9177     0.4076     0.9036
A_2     C     0.2219     0.9195     0.7039
A_3     C     0.4552     0.2625     0.6215
A_0     C     0.4582     0.2368     0.3364
A_3     C     0.92     0.1837     0.4391
A_2     C     0.6925     0.9933     0.0676
A_0     C     0.1098     0.8465     0.665
A_0     C     0.4912     0.3252     0.8047
A_1     C     0.4744     0.5777     0.6738
A_2     C     0.5401     0.8089     0.6924
A_2     C     0.7032     0.4161     0.7121
A_2     C     0.3652     0.2591     0.569
A_3     C     0.7205     0.9055     0.1115
A_3     C     0.1958     0.4468     0.2917
A_3     C     0.5648     0.9215     0.9226
A_2     C     0.9362     0.2255     0.8062
A_0     C     0.9009     0.4325     0.2684
A_1     C     0.8879     0.5846     0.9781
A_2     C     0.2084     0.9238     0.5102
A_2     C     0.0274     0.4459     0.5449
A_0     C     0.6757     0.5915     0.9067
A_2     C     0.2811     0.9281     0.1949
A_3     C     0.8767     0.5772     0.0633
A_3     C     0.5662     0.6407     0.4864
A_3     C     0.3217     0.8539     0.856
A_3     C     0.1419     0.4742     0.8031
A_2     C     0.3817     0.3658     0.4629
A_2     C     0.5832     0.3476     0.0077
A_2     C     0.6658     0.0311     0.8415
A_1     C     0.6052     0.8358     0.4362
A_3     C     0.4201     0.4698     0.2126
A_3     C     0.2253     0.2257     0.7182
A_3     C     0.2679     0.5798     0.0974
A_0     C     0.9693     0.7707     0.5412
A_1     C     0.3889     0.0278     0.8383
A_2     C     0.3166     0.0691     0.6822
A_2     C     0.4475     0.0491     0.6083
A_2     C     0.691     0.7144     0.9681
A_0     C     0.3295     0.9832     0.5159
A_2     C     0.1177     0.7274     0.4676
A_3     C     0.8223     0.4506     0.5563
A_3     C     0.1069     0.8646     0.7418
A_1     C     0.6471     0.4903     0.9042
A_3     C     0.6323     0.2838     0.5652
A_0     C     0.2141     0.7563     0.8109
A_3     C     0.0719     0.9365     0.6406
A_3     C     0.2562     0.62     0.9068
A_3     C     0.972     0.899     0.5791
A_1     C     0.1281     0.7568     0.8992
A_2     C     0.3297     0.0302     0.6596
A_0     C     0.035     0.3575     0.6692
A_0     C     0.5931     0.2002     0.6807
A_2     C     0.362     0.9277     0.1509
A_2     C     0.0512     0.4975     0.0382
A_3     C     0.0373     0.2344     0.1854
A_0     C     0.3043     0.0073     0.4041
A_0     C     0.4105     0.0252     0.4358
A_0     C     0.2756     0.7932     0.005
A_1     C     0.8767     0.7055     0.3313
A_0     C     0.8217     0.9811     0.4716
A_3     C     0.9006     0.3861     0.2306
A_1     C     0.6981     0.9956     0.4921
A_0     C     0.9126     0.898     0.2706
A_3     C     0.377     0.033     0.8586
A_2     C     0.5464     0.4557     0.1782
A_3     C     0.9856     0.0539     0.9265
A_3     C     0.5178     0.4661     0.87
A_0     C     0.9127     0.6121     0.5578
A_2     C     0.9333     0.0856     0.5055
A_1     C     0.3475     0.1403     0.7136
A_3     C     0.9836     0.5186     0.2875
A_0     C     0.0705     0.6059     0.4944
A_0     C     0.9452     0.715     0.6416
A_2     C     0.3359     0.4318     0.7752
A_3     C     0.2027     0.4253     0.7526
A_3     C     0.4839     0.7817     0.9738
A_1     C     0.8251     0.45     0.6845
A_2     C     0.1949     0.4534     0.42
A_0     C     0.0953     0.7333     0.3762
A_3     C     0.1905     0.1721     0.4751
A_0     C     0.046     0.8712     0.5752
A_3     C     0.722     0.6225     0.785
A_3     C     0.599     0.2021     0.1514
A_1     C     0.5102     0.9128     0.2217
A_2     C     0.7446     0.4073     0.818
A_1     C     0.0818     0.7283     0.4499
A_3     C     0.5248     0.7518     0.1364
A_1     C     0.0119     0.0474     0.4995
A_1     C     0.9129     0.2943     0.5673
A_0     C     0.632     0.4866     0.1749
A_0     C     0.806     0.9044     0.2949
A_2     C     0.8783     0.2183     0.9577
A_1     C     0.3077     0.9574     0.3272
A_0     C     0.888     0.3475     0.6839
A_2     C     0.1559     0.8912     0.3501
A_0     C     0.7319     0.4484     0.578
A_1     C     0.0112     0.4563     0.167
A_2     C     0.6546     0.8434     0.828
A_2     C     0.3819     0.9879     0.2253
A_0     C     0.5039     0.7009     0.0655
A_1     C     0.2174     0.5342     0.7172
A_3     C     0.0454     0.2918     0.1581
A_0     C     0.1561     0.3717     0.5129
A_1     C     0.3252     0.4537     0.6506
A_0     C     0.7537     0.6737     0.0008
A_0     C     0.5313     0.2245     0.7862
A_1     C     0.1986     0.0347     0.4721
A_1     C     0.2241     0.661     0.117
A_1     C     0.1868     0.5214     0.8034
A_0     C     0.7974     0.0511     0.1776
A_2     C     0.6139     0.6385     0.8762
A_0     C     0.0372     0.1526     0.3113
A_1     C     0.6546     0.2293     0.8155
A_0     C     0.2828     0.4154     0.9334
A_0     C     0.627     0.1421     0.4076
A_0     C     0.7352     0.3272     0.4982
A_1     C     0.542     0.2249     0.1371
A_2     C     0.4197     0.2644     0.3375
A_3     C     0.8251     0.1331     0.3552
A_2     C     0.1074     0.2767     0.601
A_0     C     0.3974     0.6254     0.2188
A_0     C     0.7755     0.2285     0.2144
A_1     C     0.7195     0.094     0.7268
A_3     C     0.2947     0.7258     0.2442
A_1     C     0.0136     0.9895     0.9908
A_2     C     0.6596     0.7779     0.1975
A_2     C     0.0261     0.376     0.1846
A_2     C     0.6974     0.9219     0.8249
A_3     C     0.4966     0.6087     0.7939
A_2     C     0.148     0.5214     0.7582
A_2     C     0.0922     0.889     0.0949
A_3     C     0.0393     0.4365     0.9643
A_0     C     0.4316     0.6789     0.2376
A_0     C     0.8835     0.9446     0.3379
A_2     C     0.045     0.8265     0.5325
A_2     C     0.8219     0.6022     0.7047
A_0     C     0.6413     0.2987     0.2001
A_2     C     0.7047     0.0732     0.072
A_1     C     0.0152     0.2136     0.8507
A_1     C     0.7675     0.6983     0.4016
A_3     C     0.6492     0.9582     0.5617
A_0     C     0.979     0.0923     0.0664
A_2     C     0.3429     0.1904     0.1388
A_2     C     0.5388     0.4322     0.9106
A_3     C     0.0851     0.7938     0.8431
A_0     C     0.3506     0.7978     0.8348
A_0     C     0.8107     0.5814     0.3117
A_0     C     0.9189     0.9763     0.5171
A_0     C     0.7707     0.7414     0.8231
A_2     C     0.1311     0.5028     0.2171
A_3     C     0.1897     0.1699     0.1176
A_1     C     0.2145     0.4039     0.1669
A_3     C     0.2646     0.2125     0.2112
A_2     C     0.1853     0.2796     0.8556
A_2     C     0.3723     0.8375     0.6445
A_1     C     0.0826     0.4603     0.6977
A_1     C     0.8865     0.6482     0.3272
A_1     C     0.1419     0.688     0.2302
A_3     C     0.0412     0.5398     0.8028
A_3     C     0.6858     0.1207     0.8363
A_3     C     0.5309     0.1205     0.5974
A_0     C     0.5574     0.3185     0.2855
A_2     C     0.2367     0.3404     0.1553
A_0     C     0.5536     0.9398     0.2595
A_2     C     0.441     0.8336     0.667
A_2     C     0.6576     0.6615     0.3445
A_0     C     0.1375     0.4076     0.4647
A_3     C     0.4985     0.3668     0.5255
A_2     C     0.2702     0.0183     0.1053
A_1     C     0.1181     0.2909     0.0351
A_2     C     0.5564     0.5039     0.79
A_2     C     0.6014     0.1715     0.0107
A_1     C     0.5461     0.041     0.5535
A_1     C     0.5777     0.5073     0.3622
A_1     C     0.7799     0.434     0.8343
A_0     C     0.9797     0.9015     0.3179
A_0     C     0.0921     0.9884     0.858
A_3     C     0.6511     0.6121     0.0571
A_3     C     0.2856     0.5361     0.6921
A_3     C     0.5515     0.2367     0.1284
A_1     C     0.8245     0.2382     0.6962
A_1     C     0.3839     0.133     0.9966
A_2     C     0.33     0.5902     0.5
A_0     C     0.2249     0.228     0.6481
A_1     C     0.0097     0.6588     0.2007
A_1     C     0.4823     0.1772     0.5951
A_3     C     0.3836     0.4918     0.3842
A_2     C     0.1548     0.7873     0.2657
A_3     C     0.1111     0.4104     0.3859
A_2     C     0.2868     0.8363     0.5884
A_2     C     0.2215     0.4079     0.0468
A_1     C     0.8562     0.5991     0.1254
A_0     C     0.7033     0.134     0.835
A_3     C     0.8493     0.8254     0.0598
A_3     C     0.7874     0.5503     0.0629
A_0     C     0.2968     0.4444     0.7663
A_1     C     0.0308     0.9571     0.0781
A_2     C     0.1573     0.3889     0.0441
A_3     C     0.5374     0.6637     0.9773
A_0     C     0.4011     0.0501     0.8172
A_0     C     0.9196     0.9741     0.855
A_2     C     0.6568     0.4615     0.1445
A_2     C     0.7434     0.7122     0.8406
A_0     C     0.3143     0.5919     0.1676
A_2     C     0.6462     0.279     0.945
A_0     C     0.7283     0.0595     0.5441
A_0     C     0.7672     0.9739     0.3958
A_3     C     0.118     0.5247     0.7472
A_2     C     0.3439     0.4601     0.6212
A_2     C     0.7674     0.8215     0.8525
A_0     C     0.0377     0.2466     0.6847
A_3     C     0.0809     0.8629     0.4588
A_0     C     0.0336     0.3217     0.0108
A_1     C     0.0194     0.1377     0.815
A_3     C     0.6963     0.3309     0.35
A_1     C     0.0016     0.5438     0.0589
A_2     C     0.6419     0.8467     0.1308
A_3     C     0.7884     0.388     0.6202
A_2     C     0.0076     0.379     0.8104
A_2     C     0.7148     0.9489     0.0967
A_1     C     0.3519     0.1111     0.7452
A_1     C     0.7002     0.3501     0.3617
A_0     C     0.303     0.5211     0.8278
A_3     C     0.3126     0.6659     0.6191
A_0     C     0.1887     0.6665     0.4871
A_3     C     0.4861     0.3025     0.4129
A_0     C     0.3635     0.3992     0.0029
A_1     C     0.8679     0.1773     0.8074
A_2     C     0.5105     0.3492     0.6357
A_1     C     0.3465     0.1725     0.9133
A_1     C     0.7438     0.1084     0.6832
A_2     C     0.3722     0.4377     0.8465
A_2     C     0.9184     0.7587     0.4249
A_0     C     0.1226     0.4146     0.8598
A_3     C     0.6937     0.5223     0.0358
A_3     C     0.7445     0.5144     0.1203
A_2     C     0.8413     0.8695     0.6352
A_0     C     0.9691     0.8195     0.9326
A_0     C     0.9599     0.9942     0.7769
A_2     C     0.045     0.6569     0.5549
A_3     C     0.4417     0.1723     0.6659
A_1     C     0.7058     0.3928     0.4081
A_3     C     0.4711     0.3636     0.3884
A_3     C     0.0836     0.3148     0.8396
A_2     C     0.8582     0.4959     0.0624
A_0     C     0.1329     0.147     0.9313
A_3     C     0.6905     0.9733     0.1127
A_2     C     0.8596     0.1677     0.2624
A_0     C     0.652     0.3926     0.0338
A_1     C     0.4523     0.3839     0.2609
A_3     C     0.7894     0.9327     0.2587
A_1     C     0.0513     0.9655     0.0162
A_3     C     0.5848     0.4716     0.3596
A_3     C     0.595     0.1391     0.7681
A_1     C     0.1363     0.4643     0.2073
A_2     C     0.1239     0.1079     0.0366
A_1     C     0.3791     0.0468     0.4625
A_3     C     0.8353     0.16     0.0981
A_3     C     0.0324     0.0498     0.0251
A_2     C     0.9508     0.9858     0.3323
A_3     C     0.0375     0.5241     0.0141
A_2     C     0.8038     0.8197     0.2057
A_2     C     0.0426     0.0209     0.7619
A_0     C     0.599     0.1401     0.3074
A_3     C     0.0498     0.853     0.3301
A_0     C     0.7684     0.7187     0.7235
A_0     C     0.6628     0.9301     0.7301
A_0     C     0.7269     0.2892     0.9965
A_0     C     0.5432     0.9342     0.0992
A_0     C     0.0335     0.3578     0.6771
A_0     C     0.2522     0.0629     0.7498
A_0     C     0.2794     0.0388     0.8714
A_0     C     0.7426     0.359     0.5596
A_0     C     0.9865     0.2386     0.6169
A_0     C     0.0675     0.2518     0.5663
A_0     C     0.0458     0.6212     0.5117
A_0     C     0.1352     0.6015     0.688
A_0     C     0.7925     0.1054     0.6976
A_0     C     0.2156     0.8156     0.7563
A_0     C     0.2766     0.1839     0.2695
A_0     C     0.8941     0.4806     0.0961
A_0     C     0.6249     0.1612     0.515
A_0     C     0.1589     0.16     0.0909
A_0     C     0.3196     0.5927     0.0758
A_0     C     0.6575     0.0742     0.6504
A_0     C     0.8186     0.3627     0.8316
A_0     C     0.6608     0.1828     0.7365
A_0     C     0.0602     0.413     0.2485
A_0     C     0.4255     0.1849     0.0336
A_0     C     0.9882     0.483     0.0867
A_0     C     0.0368     0.2176     0.0661
A_0     C     0.0832     0.2236     0.2952
A_0     C     0.4199     0.8774     0.9473
A_0     C     0.96     0.3099     0.5147
A_0     C     0.5282     0.3382     0.823
A_0     C     0.5627     0.6056     0.3181
A_0     C     0.2237     0.8671     0.2199
A_0     C     0.5982     0.4764     0.5307
A_0     C     0.11     0.0436     0.9349
A_0     C     0.1922     0.8626     0.8513
A_0     C     0.0647     0.2723     0.6538
A_0     C     0.6605     0.0389     0.8623
A_0     C     0.3481     0.5131     0.779
A_0     C     0.7648     0.0126     0.4873
A_0     C     0.8855     0.143     0.4985
A_0     C     0.564     0.9303     0.7777
A_0     C     0.2419     0.6539     0.0174
A_0     C     0.4999     0.1008     0.2825
A_0     C     0.1153     0.0377     0.7111
A_0     C     0.8565     0.9294     0.9518
A_0     C     0.5519     0.0646     0.297
A_0     C     0.731     0.2671     0.7755
A_0     C     0.2057     0.026     0.3659
A_0     C     0.5641     0.2825     0.304
A_0     C     0.1716     0.9768     0.6969
A_0     C     0.2626     0.45     0.0202
A_0     C     0.3205     0.2086     0.883
A_0     C     0.7315     0.4488     0.4654
A_0     C     0.0197     0.0008     0.3612
A_0     C     0.7934     0.1854     0.3565
A_0     C     0.7221     0.3275     0.2973
A_0     C     0.6673     0.2922     0.2329
A_0     C     0.8241     0.6975     0.9659
A_0     C     0.1903     0.1451     0.6059
A_0     C     0.6956     0.0037     0.4997
A_0     C     0.7623     0.525     0.9824
A_0     C     0.766     0.8653     0.0328
A_0     C     0.7032     0.9375     0.2832
A_0     C     0.1336     0.3354     0.987
A_0     C     0.5682     0.7751     0.1504
A_0     C     0.5958     0.8841     0.404
A_0     C     0.5718     0.576     0.8976
A_0     C     0.1362     0.6604     0.1
A_0     C     0.3643     0.3226     0.8414
A_0     C     0.1625     0.2689     0.9992
A_0     C     0.1735     0.6686     0.4224
A_0     C     0.4705     0.0252     0.1812
A_0     C     0.5147     0.0927     0.1854
A_0     C     0.0603     0.5049     0.3857
A_0     C     0.255     0.0218     0.2891
A_0     C     0.8415     0.5104     0.0421
A_0     C     0.6581     0.1315     0.8597
A_0     C     0.9997     0.884     0.2061
A_0     C     0.6491     0.3168     0.3474
A_0     C     0.2493     0.0337     0.628
A_0     C     0.9357     0.8711     0.7203
A_0     C     0.5504     0.0629     0.7666
A_0     C     0.5187     0.8379     0.3732
A_0     C     0.8189     0.8094     0.8488
A_0     C     0.2156     0.618     0.5391
A_0     C     0.2115     0.4627     0.2652
A_0     C     0.3597     0.5926     0.2745
A_0     C     0.2324     0.3457     0.0895
A_0     C     0.6196     0.2758     0.2537
A_0     C     0.7096     0.8002     0.4853
A_0     C     0.315     0.1226     0.308
A_0     C     0.2099     0.8358     0.6452
A_0     C     0.8236     0.4463     0.897
A_0     C     0.1346     0.1961     0.2997
A_0     C     0.8809     0.2503     0.2091
A_0     C     0.0782     0.2303     0.2754
A_0     C     0.58     0.2942     0.8253
A_0     C     0.9592     0.9988     0.3928
A_0     C     0.1919     0.2118     0.9313
A_0     C     0.9263     0.6834     0.4389
A_0     C     0.5629     0.7871     0.9481
A_0     C     0.4081     0.6656     0.662
A_0     C     0.1004     0.9696     0.4216
A_0     C     0.432     0.7966     0.4255
A_0     C     0.3617     0.4138     0.2215
A_0     C     0.8334     0.5336     0.6692
A_0     C     0.4302     0.9433     0.3041
A_0     C     0.5181     0.6087     0.3979
A_0     C     0.457     0.141     0.6228
A_0     C     0.4438     0.2196     0.4201
A_0     C     0.5982     0.4757     0.3721
A_0     C     0.2692     0.6187     0.5324
A_0     C     0.7123     0.8695     0.7578
A_0     C     0.3327     0.8169     0.7
A_0     C     0.4942     0.2396     0.7867
A_0     C     0.7918     0.2309     0.0879
A_0     C     0.805     0.9187     0.2952
A_0     C     0.51     0.6202     0.0005
A_0     C     0.6232     0.4349     0.6373
A_0     C     0.8706     0.4764     0.9303
A_0     C     0.2681     0.6506     0.382
A_0     C     0.593     0.042     0.0845
A_0     C     0.8902     0.1203     0.8644
A_0     C     0.8896     0.7445     0.8022
A_0     C     0.3434     0.8898     0.7818
A_0     C     0.9522     0.3809     0.4044
A_0     C     0.1886     0.6318     0.948
A_0     C     0.986     0.2919     0.717
A_0     C     0.0639     0.9546     0.4195
A_0     C     0.0727     0.7387     0.9362
A_0     C     0.6358     0.1666     0.6623
A_0     C     0.5411     0.3821     0.9474
A_0     C     0.342     0.2201     0.9749
A_0     C     0.9512     0.2036     0.4718
A_0     C     0.9024     0.0986     0.6694
A_0     C     0.9579     0.1672     0.6126
A_0     C     0.1892     0.0384     0.8272
A_0     C     0.071     0.5857     0.8418
A_0     C     0.6709     0.4431     0.1389
A_0     C     0.7408     0.4456     0.0544
A_0     C     0.5533     0.2823     0.2
A_0     C     0.3504     0.6946     0.5207
A_0     C     0.6039     0.3039     0.2535
A_0     C     0.0522     0.6445     0.088
A_0     C     0.5596     0.8914     0.9512
A_0     C     0.0134     0.8288     0.1887
A_0     C     0.4976     0.062     0.1499
A_0     C     0.4193     0.734     0.274
A_0     C     0.3312     0.5333     0.3559
A_0     C     0.228     0.9463     0.6973
A_0     C     0.8475     0.0897     0.7989
A_0     C     0.6596     0.9315     0.7688
A_0     C     0.0418     0.5467     0.9674
A_0     C     0.6104     0.689     0.5676
A_0     C     0.7161     0.846     0.5378
A_0     C     0.5274     0.2332     0.9318
A_0     C     0.4072     0.224     0.4707
A_0     C     0.1522     0.415     0.6935
A_0     C     0.5046     0.2305     0.1409
A_0     C     0.7558     0.12     0.3992
A_0     C     0.5295     0.1866     0.5507
A_0     C     0.3138     0.9325     0.5134
A_0     C     0.1229     0.0901     0.9908
A_0     C     0.4733     0.2473     0.2474
A_0     C     0.2899     0.2069     0.3768
A_0     C     0.3566     0.8068     0.4705
A_0     C     0.6033     0.8789     0.1063
A_0     C     0.3481     0.1136     0.5587
A_0     C     0.9222     0.5328     0.367
A_0     C     0.3437     0.8977     0.4911
A_0     C     0.6718     0.0081     0.0434
A_0     C     0.4646     0.7173     0.8751
A_0     C     0.5954     0.8051     0.3037
A_0     C     0.9684     0.9795     0.9368
A_0     C     0.8936     0.4157     0.2987
A_0     C     0.2921     0.9039     0.1838
A_0     C     0.2704     0.277     0.9393
A_0     C     0.6197     0.7865     0.5968
A_0     C     0.3768     0.329     0.7787
A_0     C     0.7769     0.8587     0.5451
A_0     C     0.0278     0.5048     0.7117
A_0     C     0.7467     0.7752     0.8214
A_0     C     0.6437     0.5046     0.4889
A_0     C     0.5251     0.0242     0.3187
A_0     C     0.7691     0.5214     0.8183
A_0     C     0.1535     0.6321     0.4429
A_0     C     0.6764     0.8357     0.357
A_0     C     0.6714     0.6808     0.8386
A_0     C     0.7825     0.1003     0.098
A_0     C     0.624     0.0724     0.0906
A_0     C     0.5333     0.3464     0.7301
A_0     C     0.4974     0.1317     0.0339
A_0     C     0.9076     0.749     0.3343
A_0     C     0.2604     0.8135     0.1791
A_0     C     0.9239     0.1392     0.8223
A_0     C     0.5005     0.9751     0.5833
A_0     C     0.5942     0.7169     0.5431
A_0     C     0.6643     0.8011     0.3986
A_0     C     0.4082     0.8995     0.7995
A_0     C     0.0766     0.0969     0.4771
A_0     C     0.7386     0.4587     0.4714
A_0     C     0.6664     0.8788     0.2942
A_0     C     0.2288     0.0886     0.6903
A_0     C     0.0098     0.3261     0.069
A_0     C     0.4287     0.8546     0.4271
A_0     C     0.9687     0.5101     0.855
A_0     C     0.9463     0.7606     0.8023
A_0     C     0.2485     0.4388     0.0861
A_0     C     0.9082     0.1966     0.9808
A_0     C     0.0498     0.7777     0.4594
A_0     C     0.7348     0.8506     0.2287
A_0     C     0.3641     0.7256     0.5593
A_0     C     0.2464     0.8676     0.9237
A_0     C     0.5482     0.0376     0.5197
A_0     C     0.991     0.5294     0.6912
A_0     C     0.1308     0.1455     0.3271
A_0     C     0.1102     0.3385     0.0205
A_0     C     0.4141     0.2741     0.7586
A_0     C     0.086     0.6657     0.6075
A_0     C     0.5195     0.0862     0.5189
A_0     C     0.4149     0.7757     0.5417
A_0     C     0.0491     0.9032     0.6412
A_0     C     0.3437     0.5061     0.561
A_0     C     0.4474     0.4718     0.7605
A_0     C     0.4342     0.0985     0.2934
A_0     C     0.9545     0.2418     0.3123
A_0     C     0.1664     0.1833     0.4425
A_0     C     0.1734     0.5013     0.8309
A_0     C     0.4944     0.0096     0.6107
A_0     C     0.4937     0.3642     0.5432
A_0     C     0.5872     0.9677     0.0204
A_0     C     0.4342     0.4353     0.6898
A_0     C     0.3423     0.7223     0.5603
A_0     C     0.9261     0.5667     0.94
A_0     C     0.1317     0.771     0.1587
A_0     C     0.4105     0.5851     0.7733
A_0     C     0.6506     0.051     0.1923
A_0     C     0.2192     0.2077     0.7389
A_0     C     0.647     0.9941     0.8539
A_0     C     0.6754     0.3424     0.8674
A_0     C     0.444     0.9686     0.6548
A_0     C     0.7462     0.6748     0.3334
A_0     C     0.3025     0.7621     0.8828
A_0     C     0.6425     0.8036     0.8601
A_0     C     0.904     0.0245     0.8372
A_0     C     0.5608     0.9417     0.7547
A_0     C     0.1594     0.8493     0.604
A_0     C     0.3751     0.1445     0.9419
A_0     C     0.1109     0.0275     0.0783
A_0     C     0.6938     0.403     0.7038
A_0     C     0.2637     0.5551     0.3284
A_0     C     0.0376     0.1664     0.7662
A_0     C     0.1745     0.0367     0.4332
A_0     C     0.0377     0.1918     0.3929
A_0     C     0.6936     0.5724     0.3351
A_0     C     0.3877     0.9818     0.049
A_0     C     0.1492     0.4317     0.8369
A_0     C     0.6682     0.9276     0.8574
A_0     C     0.7541     0.5384     0.1096
A_0     C     0.6398     0.5163     0.7887
A_0     C     0.9401     0.9316     0.1557
A_0     C     0.4608     0.0565     0.1789
A_0     C     0.6298     0.6786     0.0707
A_0     C     0.9263     0.4873     0.8376
A_0     C     0.9738     0.4297     0.9379
A_0     C     0.9571     0.2479     0.4604
A_0     C     0.8632     0.1493     0.2571
A_0     C     0.1365     0.7683     0.9545
A_0     C     0.8352     0.6487     0.4175
A_0     C     0.0237     0.3208     0.7934
A_0     C     0.3465     0.3398     0.2668
A_0     C     0.3922     0.9402     0.5505
A_0     C     0.1223     0.9351     0.4039
A_0     C     0.233     0.2785     0.0053
A_0     C     0.6026     0.1959     0.2854
A_0     C     0.5537     0.2541     0.0269
A_0     C     0.5231     0.6784     0.9349
A_0     C     0.5656     0.7684     0.3926
A_0     C     0.5089     0.6838     0.8559
A_0     C     0.8979     0.8123     0.5652
A_0     C     0.1155     0.2971     0.4642
A_0     C     0.5951     0.4313     0.1778
A_0     C     0.1417     0.7477     0.0615
A_0     C     0.4677     0.819     0.8551
A_0     C     0.868     0.5675     0.0508
A_0     C     0.0343     0.555     0.2567
A_0     C     0.6048     0.785     0.2062
A_0     C     0.7398     0.2187     0.5845
A_0     C     0.5541     0.3889     0.061
A_0     C     0.1211     0.7661     0.1981
