MAT-73

loop_
_symmetry_equiv_pos_as_xyz
  x,y,z
_cell_length_a          37.4698
_cell_length_b          47.7664
_cell_length_c          33.7104
_cell_angle_alpha       90.0000
_cell_angle_beta        90.0000
_cell_angle_gamma       90.0000
loop_
_atom_site_label
_atom_site_type_symbol
_atom_site_fract_x
_atom_site_fract_y
_atom_site_fract_z
A_1     C     0.8101     0.2937     0.9895
A_3     C     0.8446     0.5417     0.5475
A_0     C     0.9023     0.9876     0.8345
A_2     C     0.08     0.4155     0.619
A_0     C     0.2859     0.4225     0.1771
A_3     C     0.1915     0.9773     0.6994
A_2     C     0.6102     0.552     0.1878
A_3     C     0.5396     0.866     0.693
A_3     C     0.0062     0.9888     0.3818
A_2     C     0.7354     0.6592     0.619
A_3     C     0.0229     0.7743     0.0462
A_2     C     0.6886     0.9051     0.6669
A_3     C     0.7389     0.471     0.9065
A_2     C     0.5889     0.8108     0.7448
A_3     C     0.5     0.7529     0.9847
A_0     C     0.8183     0.0277     0.9027
A_3     C     0.0576     0.2792     0.6595
A_3     C     0.6209     0.1805     0.1244
A_3     C     0.4713     0.2795     0.0142
A_1     C     0.8449     0.575     0.6595
A_1     C     0.8746     0.2367     0.3828
A_1     C     0.9522     0.7956     0.2376
A_2     C     0.6231     0.7861     0.9641
A_2     C     0.5381     0.7042     0.6272
A_1     C     0.5092     0.3981     0.359
A_3     C     0.3783     0.3992     0.6031
A_3     C     0.4423     0.648     0.7491
A_2     C     0.387     0.2053     0.4028
A_1     C     0.25     0.2288     0.1982
A_3     C     0.1527     0.9645     0.4941
A_1     C     0.3669     0.5245     0.7443
A_0     C     0.6562     0.7156     0.1321
A_2     C     0.8065     0.6049     0.3792
A_3     C     0.1083     0.4389     0.0591
A_3     C     0.5749     0.5989     0.9013
A_3     C     0.6843     0.5705     0.0762
A_3     C     0.2308     0.8048     0.8774
A_2     C     0.6029     0.9147     0.6201
A_3     C     0.9584     0.71     0.1052
A_3     C     0.1353     0.882     0.8492
A_1     C     0.7113     0.1618     0.4736
A_2     C     0.5812     0.1269     0.4127
A_2     C     0.2468     0.924     0.9214
A_0     C     0.752     0.1139     0.3528
A_3     C     0.7259     0.651     0.3068
A_2     C     0.2399     0.1615     0.7976
A_0     C     0.7561     0.2038     0.6048
A_2     C     0.4803     0.3618     0.9737
A_3     C     0.4017     0.7627     0.3376
A_3     C     0.6932     0.3349     0.164
A_2     C     0.128     0.3815     0.3112
A_2     C     0.2505     0.9976     0.3044
A_2     C     0.8905     0.5578     0.0372
A_3     C     0.5668     0.0745     0.8282
A_0     C     0.3432     0.0186     0.5879
A_1     C     0.447     0.0308     0.3494
A_1     C     0.8538     0.1254     0.5655
A_1     C     0.6864     0.6861     0.0865
A_3     C     0.886     0.8598     0.2506
A_2     C     0.2787     0.3916     0.3446
A_1     C     0.8877     0.4022     0.8749
A_3     C     0.0907     0.3963     0.6169
A_2     C     0.5321     0.9511     0.9237
A_0     C     0.2772     0.9553     0.6449
A_0     C     0.211     0.1663     0.2042
A_3     C     0.6638     0.1557     0.8467
A_0     C     0.3223     0.5236     0.1906
A_0     C     0.7897     0.1162     0.0413
A_0     C     0.5097     0.6179     0.6351
A_0     C     0.2244     0.3077     0.8932
A_3     C     0.4793     0.0347     0.8135
A_2     C     0.3634     0.392     0.6482
A_1     C     0.0953     0.8706     0.4643
A_3     C     0.4641     0.4313     0.3919
A_3     C     0.2795     0.4115     0.9581
A_1     C     0.3638     0.7487     0.8245
A_3     C     0.7216     0.0735     0.1913
A_0     C     0.0512     0.5646     0.0882
A_1     C     0.213     0.7685     0.4312
A_1     C     0.8764     0.8067     0.9569
A_2     C     0.7048     0.8215     0.6647
A_1     C     0.0017     0.939     0.8505
A_2     C     0.5252     0.2524     0.14
A_2     C     0.5515     0.5878     0.03
A_0     C     0.3263     0.5858     0.0469
A_1     C     0.6053     0.8339     0.6948
A_2     C     0.5513     0.8134     0.4023
A_3     C     0.1263     0.0859     0.2815
A_3     C     0.5316     0.4145     0.1265
A_1     C     0.1024     0.7266     0.9379
A_2     C     0.9763     0.9378     0.3903
A_1     C     0.1179     0.976     0.7439
A_2     C     0.4302     0.62     0.7202
A_2     C     0.1986     0.9154     0.5296
A_2     C     0.7619     0.999     0.2532
A_3     C     0.3769     0.5766     0.9442
A_2     C     0.3642     0.1347     0.0424
A_1     C     0.6815     0.2223     0.0061
A_1     C     0.9681     0.7212     0.6049
A_1     C     0.6517     0.1284     0.271
A_1     C     0.426     0.6951     0.8317
A_3     C     0.0249     0.7783     0.9153
A_3     C     0.8067     0.505     0.4448
A_3     C     0.0779     0.0965     0.8825
A_0     C     0.0898     0.6792     0.9688
A_1     C     0.2029     0.1046     0.3523
A_3     C     0.6275     0.259     0.7949
A_3     C     0.6801     0.8292     0.8232
A_0     C     0.7611     0.3032     0.363
A_0     C     0.2141     0.7748     0.6281
A_1     C     0.9356     0.1104     0.8664
A_2     C     0.2407     0.4457     0.2741
A_0     C     0.335     0.3124     0.3503
A_1     C     0.1069     0.7129     0.6311
A_1     C     0.3614     0.3424     0.441
A_1     C     0.916     0.4906     0.6562
A_1     C     0.0977     0.948     0.8844
A_2     C     0.5101     0.0267     0.8019
A_3     C     0.0357     0.8661     0.603
A_3     C     0.9238     0.8326     0.7947
A_3     C     0.6439     0.4199     0.6852
A_2     C     0.2637     0.248     0.1266
A_0     C     0.0499     0.1051     0.0262
A_3     C     0.585     0.016     0.1597
A_2     C     0.1496     0.542     0.6319
A_0     C     0.2748     0.6763     0.5326
A_1     C     0.0595     0.0146     0.2334
A_2     C     0.8316     0.384     0.9177
A_1     C     0.7074     0.1658     0.2086
A_1     C     0.0885     0.6635     0.5574
A_3     C     0.1396     0.2405     0.4409
A_0     C     0.025     0.8808     0.5081
A_3     C     0.6837     0.8534     0.7778
A_0     C     0.0388     0.8271     0.9402
A_2     C     0.5677     0.549     0.3699
A_1     C     0.117     0.9408     0.617
A_1     C     0.5685     0.2082     0.045
A_0     C     0.9236     0.5304     0.1813
A_2     C     0.0117     0.9915     0.7305
A_2     C     0.212     0.0208     0.0781
A_0     C     0.1965     0.2916     0.5587
A_0     C     0.6076     0.4052     0.805
A_0     C     0.8242     0.2925     0.0237
A_2     C     0.7301     0.9897     0.5853
A_2     C     0.5376     0.2638     0.5585
A_2     C     0.6708     0.327     0.8983
A_2     C     0.1905     0.8252     0.904
A_1     C     0.9751     0.1188     0.751
A_3     C     0.894     0.3968     0.7507
A_2     C     0.3456     0.1439     0.5197
A_0     C     0.2262     0.8951     0.4605
A_3     C     0.8833     0.433     0.9817
A_1     C     0.6514     0.8104     0.5268
A_0     C     0.903     0.1816     0.9881
A_3     C     0.0706     0.6475     0.4954
A_2     C     0.9367     0.9213     0.1254
A_3     C     0.5012     0.5615     0.6002
A_2     C     0.983     0.3758     0.6407
A_0     C     0.0714     0.8372     0.9177
A_1     C     0.5884     0.7669     0.1374
A_0     C     0.7014     0.6232     0.9974
A_2     C     0.9424     0.5384     0.9929
A_3     C     0.2758     0.5267     0.3134
A_3     C     0.8317     0.8279     0.6591
A_0     C     0.8323     0.0972     0.7279
A_0     C     0.6337     0.2906     0.9021
A_3     C     0.6585     0.1645     0.5496
A_0     C     0.3969     0.6205     0.5891
A_2     C     0.8251     0.6655     0.2388
A_0     C     0.2177     0.8224     0.0025
A_2     C     0.1214     0.705     0.7685
A_2     C     0.981     0.8229     0.0683
A_0     C     0.4107     0.9682     0.2537
A_1     C     0.5561     0.0097     0.3124
A_0     C     0.7712     0.7196     0.2371
A_0     C     0.329     0.2642     0.0385
A_1     C     0.2063     0.7004     0.461
A_3     C     0.6999     0.4901     0.6328
A_0     C     0.5041     0.4319     0.5914
A_1     C     0.8243     0.8072     0.7878
A_0     C     0.5231     0.0654     0.8837
A_0     C     0.1399     0.1764     0.3183
A_2     C     0.7798     0.465     0.3418
A_1     C     0.7587     0.8814     0.9666
A_1     C     0.2629     0.0191     0.1742
A_1     C     0.4088     0.191     0.9957
A_3     C     0.9348     0.5103     0.7867
A_0     C     0.8915     0.3831     0.9883
A_2     C     0.1635     0.3171     0.6191
A_1     C     0.9347     0.7318     0.2642
A_0     C     0.6344     0.4368     0.687
A_2     C     0.5677     0.6529     0.7238
A_3     C     0.9442     0.4191     0.4282
A_3     C     0.3673     0.1537     0.075
A_0     C     0.8363     0.144     0.3217
A_0     C     0.1483     0.2212     0.6841
A_2     C     0.745     0.1802     0.5039
A_1     C     0.1754     0.3955     0.7494
A_0     C     0.2042     0.7474     0.7741
A_1     C     0.017     0.5812     0.9821
A_3     C     0.6827     0.5895     0.3635
A_0     C     0.0955     0.9287     0.9803
A_0     C     0.0451     0.3898     0.6183
A_2     C     0.3745     0.9334     0.6046
A_1     C     0.8833     0.7029     0.8393
A_3     C     0.3295     0.1343     0.2102
A_2     C     0.4273     0.8495     0.3136
A_1     C     0.2562     0.9804     0.367
A_3     C     0.3946     0.4002     0.7012
A_0     C     0.1524     0.6456     0.3691
A_3     C     0.7825     0.0025     0.7379
A_2     C     0.4879     0.8463     0.0535
A_2     C     0.9584     0.1817     0.3886
A_2     C     0.3095     0.855     0.1969
A_1     C     0.2647     0.6777     0.9943
A_3     C     0.7442     0.6121     0.2548
A_1     C     0.15     0.376     0.8209
A_2     C     0.4891     0.8456     0.8882
A_3     C     0.2986     0.4233     0.0059
A_3     C     0.319     0.3869     0.0232
A_1     C     0.4695     0.4069     0.0334
A_2     C     0.003     0.0581     0.278
A_1     C     0.9836     0.2688     0.8577
A_0     C     0.4284     0.2417     0.9934
A_2     C     0.3173     0.5838     0.2803
A_1     C     0.5451     0.6564     0.9875
A_1     C     0.1485     0.0904     0.1266
A_3     C     0.1959     0.9238     0.526
A_0     C     0.877     0.4356     0.7623
A_3     C     0.3464     0.7905     0.8956
A_2     C     0.9406     0.2481     0.9651
A_0     C     0.9624     0.2853     0.5448
A_3     C     0.6885     0.3564     0.3455
A_0     C     0.7445     0.3578     0.4054
A_2     C     0.1682     0.5445     0.5626
A_3     C     0.5526     0.9023     0.2359
A_0     C     0.0989     0.7936     0.0326
A_1     C     0.5168     0.0816     0.9499
A_2     C     0.5548     0.9006     0.534
A_1     C     0.3603     0.0459     0.0062
A_2     C     0.0087     0.8003     0.7208
A_1     C     0.3234     0.5765     0.9229
A_2     C     0.4403     0.6684     0.4324
A_0     C     0.1773     0.7661     0.7145
A_2     C     0.883     0.0273     0.4949
A_0     C     0.8729     0.7203     0.7406
A_3     C     0.814     0.6251     0.5962
A_0     C     0.8817     0.5877     0.9934
A_1     C     0.0154     0.3539     0.4597
A_0     C     0.0657     0.3436     0.212
A_1     C     0.9336     0.7777     0.3872
A_1     C     0.2653     0.5703     0.6403
A_3     C     0.6567     0.9653     0.7403
A_0     C     0.0541     0.0583     0.3
A_1     C     0.9834     0.6703     0.3242
A_3     C     0.5336     0.1601     0.1551
A_2     C     0.8939     0.0867     0.0739
A_2     C     0.5172     0.3419     0.6476
A_1     C     0.9825     0.8669     0.4952
A_2     C     0.1568     0.358     0.0263
A_3     C     0.5487     0.2382     0.5347
A_0     C     0.6048     0.4843     0.3794
A_2     C     0.3131     0.5599     0.945
A_2     C     0.6297     0.9352     0.0467
A_1     C     0.0432     0.6959     0.5435
A_3     C     0.1263     0.3576     0.3849
A_2     C     0.5641     0.999     0.1019
A_3     C     0.5781     0.4964     0.7945
A_0     C     0.7981     0.6792     0.5103
A_3     C     0.8878     0.647     0.4219
A_3     C     0.3636     0.4592     0.9019
A_0     C     0.78     0.5262     0.3277
A_0     C     0.9175     0.2924     0.3547
A_2     C     0.0908     0.7836     0.7926
A_3     C     0.0813     0.0459     0.1984
A_3     C     0.0319     0.6199     0.3759
A_2     C     0.6119     0.9961     0.0267
A_2     C     0.8957     0.9444     0.7116
A_0     C     0.8178     0.3781     0.3279
A_2     C     0.1576     0.6684     0.2372
A_2     C     0.4374     0.7958     0.3998
A_1     C     0.4318     0.3804     0.8367
A_1     C     0.0547     0.4541     0.6125
A_3     C     0.6632     0.8926     0.9349
A_0     C     0.2915     0.4472     0.7793
A_0     C     0.5138     0.7573     0.7213
A_3     C     0.1519     0.2916     0.9737
A_1     C     0.4559     0.8313     0.8875
A_3     C     0.1382     0.5306     0.0013
A_2     C     0.1241     0.9132     0.4812
A_2     C     0.8708     0.998     0.2861
A_3     C     0.8761     0.1705     0.2105
A_0     C     0.7444     0.758     0.7079
A_3     C     0.0624     0.6687     0.8203
A_3     C     0.5679     0.5051     0.6054
A_0     C     0.0652     0.5678     0.0399
A_0     C     0.3297     0.1034     0.9147
A_3     C     0.4785     0.4248     0.9791
A_0     C     0.7203     0.0491     0.3898
A_2     C     0.9486     0.7603     0.5561
A_3     C     0.1711     0.2123     0.9191
A_2     C     0.4782     0.1715     0.254
A_2     C     0.2783     0.782     0.9815
A_1     C     0.6096     0.1259     0.4528
A_3     C     0.0499     0.8781     0.4067
A_2     C     0.2388     0.3198     0.8136
A_2     C     0.2477     0.5664     0.9919
A_2     C     0.1621     0.2945     0.4217
A_2     C     0.5786     0.7453     0.3144
A_2     C     0.7192     0.6695     0.2863
A_2     C     0.1679     0.1066     0.7112
A_2     C     0.336     0.7102     0.3592
A_2     C     0.3075     0.9345     0.2186
A_2     C     0.1083     0.6263     0.7195
A_2     C     0.8357     0.5321     0.8647
A_2     C     0.2451     0.3984     0.146
A_2     C     0.0463     0.9545     0.9693
A_2     C     0.9928     0.1789     0.7577
A_2     C     0.4203     0.8245     0.9055
A_2     C     0.4517     0.6175     0.8579
A_2     C     0.2655     0.4988     0.1028
A_2     C     0.635     0.203     0.5813
A_2     C     0.9843     0.0813     0.376
A_2     C     0.5052     0.4839     0.6856
A_2     C     0.5913     0.0556     0.3857
A_2     C     0.4364     0.7918     0.8083
A_2     C     0.3381     0.1722     0.6598
A_2     C     0.6372     0.3225     0.3033
A_2     C     0.8593     0.9312     0.9975
A_2     C     0.5135     0.4263     0.832
A_2     C     0.696     0.0129     0.8015
A_2     C     0.3443     0.5774     0.9906
A_2     C     0.4163     0.5703     0.6567
A_2     C     0.0455     0.0606     0.4085
A_2     C     0.4098     0.8371     0.0396
A_2     C     0.3795     0.2572     0.6177
A_2     C     0.0577     0.2901     0.4336
A_2     C     0.2938     0.0733     0.4796
A_2     C     0.9195     0.2388     0.1797
A_2     C     0.3798     0.1305     0.7553
A_2     C     0.0686     0.4447     0.41
A_2     C     0.5967     0.4982     0.1885
A_2     C     0.4973     0.0664     0.7279
A_2     C     0.2694     0.2298     0.5068
A_2     C     0.3062     0.7275     0.8255
A_2     C     0.2103     0.1003     0.4042
A_2     C     0.6927     0.5628     0.95
A_2     C     0.6662     0.8993     0.9423
A_2     C     0.3036     0.9118     0.3938
A_2     C     0.1903     0.6953     0.3663
A_2     C     0.072     0.3368     0.1236
A_2     C     0.0727     0.0045     0.2973
A_2     C     0.4537     0.7878     0.3118
A_2     C     0.8534     0.859     0.0548
A_2     C     0.114     0.0741     0.6332
A_2     C     0.5224     0.4764     0.871
A_2     C     0.708     0.9745     0.1673
A_2     C     0.8085     0.4301     0.1277
A_2     C     0.245     0.038     0.7528
A_2     C     0.7609     0.0882     0.8754
A_2     C     0.0252     0.4517     0.4125
A_2     C     0.4976     0.9445     0.6498
A_2     C     0.537     0.0265     0.4508
A_2     C     0.3887     0.262     0.3472
A_2     C     0.9999     0.5247     0.0846
A_2     C     0.0902     0.7363     0.2706
A_2     C     0.7928     0.5054     0.4443
A_2     C     0.1402     0.2027     0.8305
A_2     C     0.6628     0.1304     0.4104
A_2     C     0.2948     0.7114     0.8436
A_2     C     0.1584     0.4655     0.826
A_2     C     0.1004     0.2228     0.3704
A_2     C     0.7706     0.5183     0.1136
A_2     C     0.6554     0.7031     0.1647
A_2     C     0.8233     0.5325     0.9872
A_2     C     0.6953     0.7266     0.6293
A_2     C     0.5711     0.9342     0.548
A_2     C     0.4365     0.4116     0.6642
A_2     C     0.9405     0.6098     0.9396
A_2     C     0.0347     0.1897     0.5389
A_2     C     0.0671     0.8631     0.6975
A_2     C     0.5174     0.7135     0.173
A_2     C     0.2027     0.8174     0.8259
A_2     C     0.3106     0.9645     0.9072
A_2     C     0.4301     0.1297     0.9985
A_2     C     0.6533     0.4952     0.0476
A_2     C     0.2941     0.0567     0.29
A_2     C     0.0747     0.1773     0.2683
A_2     C     0.9228     0.4986     0.061
A_2     C     0.0112     0.3879     0.8985
A_2     C     0.4808     0.8884     0.6532
A_2     C     0.7839     0.7408     0.8099
A_2     C     0.6894     0.5439     0.1741
A_2     C     0.7778     0.1333     0.8483
A_2     C     0.0214     0.0819     0.5022
A_2     C     0.6428     0.8851     0.4085
A_2     C     0.5185     0.126     0.5843
A_2     C     0.7308     0.7649     0.8733
A_2     C     0.0844     0.637     0.1854
A_2     C     0.5946     0.7707     0.3775
A_2     C     0.4984     0.7352     0.8261
A_2     C     0.3604     0.8467     0.9556
A_2     C     0.8379     0.0556     0.993
A_2     C     0.2715     0.8715     0.468
A_2     C     0.8704     0.2931     0.0183
A_2     C     0.7935     0.4009     0.2964
A_2     C     0.5414     0.7111     0.1387
A_2     C     0.4519     0.5187     0.1812
A_2     C     0.3835     0.9936     0.2174
A_2     C     0.5669     0.0305     0.4596
A_2     C     0.659     0.2678     0.3781
A_2     C     0.5378     0.0598     0.1316
A_2     C     0.6325     0.6729     0.277
A_2     C     0.832     0.3643     0.4303
A_2     C     0.0331     0.1808     0.8089
A_2     C     0.5142     0.6351     0.8492
A_2     C     0.2175     0.8861     0.8161
A_2     C     0.5852     0.525     0.6898
A_2     C     0.6327     0.8874     0.5793
A_2     C     0.3317     0.8111     0.0819
A_2     C     0.6837     0.5753     0.2817
A_2     C     0.6948     0.9311     0.5924
A_2     C     0.2403     0.2832     0.8645
A_2     C     0.3485     0.8076     0.564
A_2     C     0.3281     0.664     0.747
A_2     C     0.357     0.4767     0.8158
A_2     C     0.6548     0.3104     0.2346
A_2     C     0.0054     0.8187     0.2072
A_2     C     0.4533     0.8364     0.5861
A_2     C     0.8356     0.7235     0.2386
A_2     C     0.4046     0.3543     0.4922
A_2     C     0.0944     0.2248     0.6473
A_2     C     0.1138     0.6755     0.1416
A_2     C     0.4944     0.9382     0.7306
A_2     C     0.9768     0.9099     0.4427
A_2     C     0.5903     0.0934     0.7487
A_2     C     0.638     0.2425     0.7657
A_2     C     0.4205     0.4621     0.9203
A_2     C     0.0664     0.4675     0.4087
A_2     C     0.595     0.4575     0.3437
A_2     C     0.0587     0.3989     0.6383
A_2     C     0.6932     0.5398     0.7725
A_2     C     0.0496     0.8707     0.724
A_2     C     0.1135     0.1543     0.2577
A_2     C     0.894     0.4118     0.4018
A_2     C     0.1792     0.5621     0.8668
A_2     C     0.5971     0.2798     0.6705
A_2     C     0.9254     0.7036     0.3694
A_2     C     0.7983     0.1628     0.9429
A_2     C     0.76     0.6274     0.6736
A_2     C     0.6197     0.6124     0.9086
A_2     C     0.1382     0.723     0.4789
A_2     C     0.2995     0.0269     0.2118
A_2     C     0.7057     0.7792     0.2029
A_2     C     0.9219     0.3903     0.7057
A_2     C     0.1367     0.2218     0.9679
A_2     C     0.1531     0.9377     0.6094
A_2     C     0.1766     0.219     0.8595
A_2     C     0.1542     0.7517     0.6285
A_2     C     0.6857     0.9905     0.6959
A_2     C     0.2704     0.067     0.8487
A_2     C     0.982     0.7475     0.2294
A_2     C     0.3862     0.1428     0.0664
A_2     C     0.8383     0.3919     0.2369
A_2     C     0.9548     0.8797     0.4565
A_2     C     0.0948     0.5339     0.395
A_2     C     0.8003     0.2989     0.0742
A_2     C     0.2575     0.2124     0.7486
A_2     C     0.7609     0.2182     0.4325
A_2     C     0.7738     0.5353     0.4212
A_2     C     0.4787     0.5485     0.8768
A_2     C     0.566     0.7613     0.5407
A_2     C     0.9042     0.7561     0.0741
A_2     C     0.9824     0.4598     0.6555
A_2     C     0.3012     0.7754     0.5369
A_2     C     0.3143     0.2756     0.7905
A_2     C     0.6716     0.0065     0.6999
A_2     C     0.2231     0.4926     0.9974
A_2     C     0.9924     0.6951     0.1894
A_2     C     0.8773     0.0737     0.1453
A_2     C     0.4251     0.5303     0.0756
A_2     C     0.0933     0.0667     0.0508
A_2     C     0.9515     0.926     0.8342
A_2     C     0.4578     0.8104     0.5888
A_2     C     0.7897     0.4397     0.2787
A_2     C     0.1777     0.1806     0.055
A_2     C     0.4597     0.7496     0.8019
A_2     C     0.4758     0.6569     0.2423
A_2     C     0.3696     0.6126     0.0224
A_2     C     0.1924     0.4513     0.3699
A_2     C     0.6496     0.0474     0.9886
A_2     C     0.439     0.978     0.3991
A_2     C     0.736     0.4006     0.0396
A_2     C     0.1803     0.4114     0.9647
A_2     C     0.6915     0.0456     0.3952
A_2     C     0.2839     0.5304     0.6138
A_2     C     0.7803     0.609     0.2553
A_2     C     0.4934     0.8436     0.1346
A_2     C     0.2036     0.0147     0.7852
A_2     C     0.7256     0.5273     0.2062
A_2     C     0.0152     0.0762     0.1868
A_2     C     0.5125     0.2291     0.208
A_2     C     0.0888     0.5949     0.8922
A_2     C     0.4557     0.0761     0.5475
A_2     C     0.3515     0.1569     0.277
A_2     C     0.6585     0.17     0.6548
A_2     C     0.6963     0.5923     0.5943
A_2     C     0.7374     0.5987     0.8664
A_2     C     0.1338     0.2604     0.1529
A_2     C     0.1328     0.9623     0.4476
A_2     C     0.671     0.6117     0.7456
A_2     C     0.3041     0.0256     0.5844
A_2     C     0.0399     0.6132     0.7573
A_2     C     0.8514     0.1473     0.0245
A_2     C     0.5524     0.6633     0.6117
A_2     C     0.4751     0.6231     0.017
A_2     C     0.3943     0.2991     0.6412
A_2     C     0.3504     0.1161     0.2424
A_2     C     0.6448     0.883     0.8549
A_2     C     0.2519     0.1203     0.4263
A_2     C     0.1321     0.2037     0.2973
A_2     C     0.9187     0.118     0.5681
A_2     C     0.4141     0.8067     0.8498
A_2     C     0.9236     0.1642     0.6713
A_2     C     0.9818     0.1151     0.9681
A_2     C     0.9795     0.48     0.5815
A_2     C     0.4091     0.5881     0.8803
A_2     C     0.9163     0.3135     0.0512
A_2     C     0.3603     0.3554     0.8903
A_2     C     0.3496     0.8583     0.8978
A_2     C     0.6987     0.7904     0.005
A_2     C     0.1808     0.2945     0.8082
A_2     C     0.5137     0.2742     0.0112
A_2     C     0.743     0.8155     0.0485
A_2     C     0.0411     0.5844     0.78
A_2     C     0.5901     0.3456     0.5134
A_2     C     0.0215     0.3293     0.8917
A_2     C     0.6581     0.598     0.2134
A_2     C     0.4811     0.6103     0.3964
A_2     C     0.7044     0.7913     0.7486
A_2     C     0.8074     0.0817     0.848
A_2     C     0.6659     0.5684     0.961
A_2     C     0.9327     0.2521     0.0495
A_2     C     0.0573     0.6697     0.391
A_2     C     0.1778     0.123     0.749
A_2     C     0.1681     0.3562     0.1551
A_2     C     0.4394     0.0355     0.0338
A_2     C     0.1885     0.6042     0.7077
A_2     C     0.7313     0.3852     0.2846
A_2     C     0.139     0.2782     0.6311
A_2     C     0.6217     0.1073     0.771
A_2     C     0.3555     0.6018     0.9788
A_2     C     0.4569     0.5782     0.8708
A_2     C     0.1605     0.5179     0.4625
A_2     C     0.9548     0.244     0.0822
A_2     C     0.8275     0.645     0.8488
A_2     C     0.4259     0.7734     0.5311
A_2     C     0.2265     0.2044     0.9515
A_2     C     0.0676     0.7006     0.2102
A_2     C     0.6079     0.9921     0.3587
A_2     C     0.8136     0.2251     0.4293
A_2     C     0.277     0.8992     0.4701
A_2     C     0.4069     0.5855     0.3596
A_2     C     0.2719     0.8573     0.1188
A_2     C     0.8057     0.5972     0.5158
A_2     C     0.4186     0.8817     0.1122
A_2     C     0.6479     0.2647     0.2142
A_2     C     0.3339     0.1758     0.0299
A_2     C     0.0532     0.1421     0.6152
A_2     C     0.5861     0.3613     0.8481
A_2     C     0.3911     0.2397     0.5102
A_2     C     0.0447     0.734     0.3395
A_2     C     0.41     0.2339     0.2789
A_2     C     0.8833     0.6022     0.9377
A_2     C     0.43     0.5021     0.8448
A_2     C     0.4346     0.7959     0.8747
A_2     C     0.3827     0.5548     0.2745
A_2     C     0.2005     0.2455     0.3963
A_2     C     0.8969     0.9087     0.8455
A_2     C     0.3497     0.8496     0.4128
A_2     C     0.5301     0.1723     0.9118
A_2     C     0.7785     0.631     0.7921
A_2     C     0.68     0.9159     0.2741
A_2     C     0.3916     0.275     0.9009
A_2     C     0.8765     0.5161     0.8727
A_2     C     0.1255     0.753     0.3091
A_2     C     0.385     0.6665     0.6114
A_2     C     0.1977     0.3211     0.0896
A_2     C     0.5709     0.5654     0.298
A_2     C     0.5183     0.5874     0.3655
A_2     C     0.7686     0.9316     0.1458
A_2     C     0.265     0.0791     0.8327
A_2     C     0.9038     0.3765     0.3294
A_2     C     0.6612     0.4413     0.5879
A_2     C     0.4569     0.3604     0.2332
A_2     C     0.129     0.4942     0.5891
A_2     C     0.3982     0.0958     0.3484
A_2     C     0.3073     0.4467     0.2919
A_2     C     0.5887     0.7156     0.0781
A_2     C     0.8252     0.2793     0.3375
A_2     C     0.1644     0.669     0.5786
A_2     C     0.8226     0.4268     0.4184
A_2     C     0.6651     0.3513     0.1265
A_2     C     0.2288     0.7665     0.9244
A_2     C     0.9121     0.1378     0.8111
A_2     C     0.9925     0.1968     0.1739
A_2     C     0.7157     0.9713     0.2727
A_2     C     0.4921     0.7268     0.0842
A_2     C     0.9971     0.9922     0.4496
A_2     C     0.3406     0.3892     0.5424
A_2     C     0.1711     0.0099     0.2194
A_2     C     0.6477     0.3855     0.5964
A_2     C     0.92     0.138     0.993
A_2     C     0.2521     0.3521     0.4878
A_2     C     0.731     0.4916     0.3754
A_2     C     0.9429     0.1734     0.9395
A_2     C     0.5294     0.9034     0.9565
A_2     C     0.7935     0.1073     0.0608
A_2     C     0.2167     0.7265     0.4187
A_2     C     0.9286     0.3063     0.2768
A_2     C     0.9873     0.3174     0.3164
A_2     C     0.6782     0.4109     0.9381
A_2     C     0.8191     0.969     0.5082
A_2     C     0.0678     0.188     0.4996
A_2     C     0.3993     0.3785     0.3702
A_2     C     0.8653     0.4178     0.4731
A_2     C     0.4469     0.8013     0.3697
A_2     C     0.933     0.4932     0.5269
A_2     C     0.2474     0.5071     0.0643
A_2     C     0.3121     0.5589     0.9034
A_2     C     0.6816     0.2853     0.4087
A_2     C     0.8213     0.3378     0.5199
A_2     C     0.1088     0.6579     0.3745
A_2     C     0.829     0.5357     0.14
A_2     C     0.9112     0.6814     0.5975
A_2     C     0.0555     0.3451     0.0411
A_2     C     0.997     0.1094     0.1766
A_2     C     0.9302     0.7893     0.6795
A_2     C     0.5328     0.1967     0.8044
A_2     C     0.1216     0.4021     0.6639
A_2     C     0.1541     0.3631     0.6054
A_2     C     0.0874     0.2691     0.6217
A_2     C     0.5297     0.6027     0.6095
A_2     C     0.4577     0.5841     0.8492
A_2     C     0.3808     0.4223     0.6218
A_2     C     0.8589     0.3078     0.0488
A_2     C     0.7185     0.0546     0.7918
A_2     C     0.9828     0.8048     0.6781
A_2     C     0.6164     0.6036     0.1232
A_2     C     0.029     0.9206     0.2266
A_2     C     0.8626     0.437     0.3765
A_2     C     0.8235     0.4957     0.8923
A_2     C     0.1575     0.8459     0.1703
A_2     C     0.2922     0.5731     0.5695
A_2     C     0.0746     0.2643     0.9701
A_2     C     0.9983     0.1652     0.6046
A_2     C     0.7896     0.2268     0.222
A_2     C     0.9505     0.0127     0.9661
A_2     C     0.2874     0.0388     0.3787
A_2     C     0.271     0.6653     0.4435
A_2     C     0.9391     0.8624     0.5121
A_2     C     0.4618     0.6116     0.5113
A_2     C     0.8373     0.3255     0.7806
A_2     C     0.0977     0.2394     0.6369
A_2     C     0.3414     0.1103     0.2603
A_2     C     0.7663     0.2297     0.0543
A_2     C     0.9437     0.6955     0.5502
A_2     C     0.0655     0.8735     0.2608
A_2     C     0.9349     0.5309     0.4631
A_2     C     0.4843     0.9755     0.2715
A_2     C     0.4903     0.8008     0.6316
A_2     C     0.2931     0.4911     0.1503
A_2     C     0.5591     0.8746     0.8066
A_2     C     0.4708     0.9595     0.8012
A_2     C     0.4348     0.1907     0.4098
A_2     C     0.2834     0.735     0.4022
A_2     C     0.6346     0.7168     0.9176
A_2     C     0.2115     0.667     0.7311
A_2     C     0.2323     0.8028     0.9585
A_2     C     0.1467     0.5944     0.9446
A_2     C     0.1414     0.4071     0.5538
A_2     C     0.2524     0.4149     0.3444
A_2     C     0.7749     0.8536     0.4443
A_2     C     0.6252     0.3806     0.7536
A_2     C     0.4229     0.346     0.5117
A_2     C     0.1898     0.2459     0.8817
A_2     C     0.7268     0.2484     0.2837
A_2     C     0.9322     0.4869     0.9208
A_2     C     0.0356     0.9541     0.954
A_2     C     0.8649     0.3364     0.9939
A_2     C     0.7011     0.7555     0.1402
A_2     C     0.9077     0.2904     0.0519
A_2     C     0.1928     0.3848     0.4698
A_2     C     0.7684     0.049     0.9846
A_2     C     0.2321     0.9028     0.4797
A_2     C     0.9651     0.3724     0.6292
A_2     C     0.7457     0.4152     0.1661
A_2     C     0.1303     0.9607     0.4066
A_2     C     0.1387     0.8662     0.0387
A_2     C     0.524     0.3667     0.9783
A_2     C     0.0248     0.2606     0.1551
A_2     C     0.2559     0.8997     0.5085
A_2     C     0.6467     0.0432     0.66
