MAT-15

loop_
_symmetry_equiv_pos_as_xyz
  x,y,z
_cell_length_a          47.575
_cell_length_b          22.6381
_cell_length_c          19.7419
_cell_angle_alpha       90.0000
_cell_angle_beta        90.0000
_cell_angle_gamma       90.0000
loop_
_atom_site_label
_atom_site_type_symbol
_atom_site_fract_x
_atom_site_fract_y
_atom_site_fract_z
A_3     C     0.8084     0.0765     0.5225
A_0     C     0.1222     0.643     0.8419
A_1     C     0.5491     0.3012     0.1504
A_2     C     0.2882     0.248     0.9061
A_1     C     0.2987     0.9285     0.4852
A_1     C     0.6462     0.8406     0.3523
A_0     C     0.2562     0.8475     0.7093
A_1     C     0.7326     0.6637     0.5848
A_2     C     0.7912     0.3552     0.6522
A_3     C     0.9136     0.2314     0.7486
A_2     C     0.0606     0.431     0.8246
A_0     C     0.4768     0.5513     0.737
A_2     C     0.3507     0.4433     0.5579
A_0     C     0.4536     0.5364     0.0224
A_2     C     0.9132     0.7272     0.5165
A_1     C     0.2823     0.6073     0.4221
A_0     C     0.9753     0.3461     0.0546
A_3     C     0.4152     0.8909     0.1429
A_3     C     0.445     0.2344     0.3387
A_1     C     0.2673     0.8251     0.2525
A_3     C     0.5008     0.585     0.6067
A_3     C     0.1675     0.0114     0.4414
A_2     C     0.839     0.5171     0.0332
A_2     C     0.6204     0.3497     0.4073
A_3     C     0.4313     0.6435     0.4291
A_3     C     0.7132     0.6289     0.9824
A_2     C     0.7463     0.9567     0.4653
A_1     C     0.002     0.2887     0.0667
A_3     C     0.5145     0.9829     0.7158
A_3     C     0.1216     0.3352     0.3363
A_0     C     0.772     0.0674     0.1774
A_1     C     0.2604     0.018     0.0462
A_2     C     0.4757     0.6948     0.0313
A_0     C     0.4939     0.1485     0.9321
A_2     C     0.8534     0.6938     0.1647
A_2     C     0.9379     0.9921     0.8293
A_0     C     0.8033     0.5184     0.1113
A_2     C     0.0788     0.4754     0.639
A_1     C     0.6446     0.191     0.4601
A_0     C     0.8533     0.9349     0.6771
A_0     C     0.9712     0.1841     0.7321
A_2     C     0.066     0.8328     0.5253
A_3     C     0.7482     0.2252     0.3699
A_2     C     0.7436     0.6738     0.0237
A_0     C     0.4611     0.253     0.705
A_1     C     0.0076     0.3517     0.6345
A_0     C     0.3604     0.8047     0.4813
A_3     C     0.8978     0.5537     0.1476
A_3     C     0.1683     0.9656     0.2533
A_1     C     0.5768     0.8615     0.5892
A_2     C     0.7962     0.1871     0.0933
A_3     C     0.3952     0.4264     0.1317
A_1     C     0.9751     0.8361     0.9343
A_2     C     0.195     0.8987     0.6474
A_1     C     0.221     0.279     0.5881
A_0     C     0.142     0.972     0.0638
A_0     C     0.5335     0.5954     0.5304
A_3     C     0.2577     0.1783     0.752
A_2     C     0.069     0.971     0.6829
A_2     C     0.825     0.8134     0.5637
A_0     C     0.5957     0.0958     0.4523
A_0     C     0.8847     0.4871     0.7757
A_2     C     0.5169     0.4846     0.3483
A_2     C     0.2575     0.3907     0.5075
A_2     C     0.1343     0.6851     0.4762
A_2     C     0.616     0.9101     0.9619
A_1     C     0.2997     0.9021     0.1607
A_2     C     0.4953     0.982     0.7667
A_2     C     0.767     0.3581     0.9505
A_1     C     0.9974     0.8647     0.8977
A_1     C     0.9301     0.6039     0.4927
A_2     C     0.7337     0.841     0.5142
A_3     C     0.7431     0.2793     0.4749
A_2     C     0.4064     0.0213     0.8583
A_0     C     0.6305     0.8591     0.2112
A_2     C     0.6664     0.5608     0.5843
A_1     C     0.6407     0.6927     0.2532
A_1     C     0.2566     0.3253     0.2142
A_3     C     0.8708     0.2259     0.8183
A_2     C     0.7297     0.477     0.2638
A_1     C     0.9826     0.9623     0.5771
A_2     C     0.6002     0.6257     0.7128
A_2     C     0.0096     0.406     0.5299
A_2     C     0.1146     0.2827     0.0943
A_0     C     0.9607     0.3356     0.2928
A_2     C     0.862     0.9623     0.8451
A_3     C     0.8545     0.0582     0.8267
A_0     C     0.8375     0.9483     0.4115
A_1     C     0.9658     0.706     0.9299
A_2     C     0.6311     0.491     0.093
A_0     C     0.1526     0.6365     0.7348
A_0     C     0.6063     0.0842     0.0683
A_2     C     0.8774     0.641     0.4479
A_0     C     0.6127     0.6747     0.1292
A_1     C     0.6885     0.5092     0.95
A_2     C     0.8298     0.264     0.8799
A_0     C     0.7395     0.9261     0.8172
A_3     C     0.4697     0.1489     0.0909
A_3     C     0.8037     0.342     0.7637
A_2     C     0.5317     0.3292     0.2106
A_0     C     0.8895     0.9162     0.1663
A_1     C     0.2692     0.8926     0.3114
A_2     C     0.3902     0.8689     0.319
A_2     C     0.9177     0.8006     0.8287
A_1     C     0.8142     0.4005     0.7606
A_1     C     0.9622     0.9971     0.193
A_1     C     0.335     0.5399     0.0928
A_2     C     0.7417     0.0928     0.1703
A_2     C     0.2522     0.5399     0.2503
A_2     C     0.654     0.8687     0.9889
A_3     C     0.6949     0.9922     0.644
A_3     C     0.0684     0.3419     0.469
A_0     C     0.4869     0.8192     0.5972
A_0     C     0.9835     0.58     0.9616
A_2     C     0.4197     0.3801     0.9645
A_2     C     0.989     0.4778     0.1165
A_2     C     0.1246     0.8622     0.8076
A_1     C     0.8471     0.2407     0.5382
A_2     C     0.6988     0.4269     0.5221
A_1     C     0.7849     0.6005     0.9444
A_1     C     0.637     0.3772     0.4778
A_0     C     0.1441     0.6031     0.4756
A_3     C     0.8575     0.8535     0.7976
A_2     C     0.98     0.9228     0.9998
A_3     C     0.507     0.0184     0.0775
A_3     C     0.828     0.5324     0.5673
A_1     C     0.5329     0.8417     0.9831
A_3     C     0.5631     0.6903     0.191
A_0     C     0.9515     0.113     0.2194
A_2     C     0.314     0.5345     0.656
A_1     C     0.7854     0.1854     0.8672
A_1     C     0.1326     0.093     0.1514
A_0     C     0.1846     0.1114     0.7131
A_0     C     0.0738     0.3248     0.7757
A_0     C     0.8969     0.3897     0.0905
A_0     C     0.1518     0.9593     0.7008
A_2     C     0.0011     0.0896     0.775
A_3     C     0.6451     0.4414     0.8315
A_0     C     0.8352     0.0529     0.6232
A_3     C     0.6051     0.8371     0.554
A_0     C     0.9066     0.0738     0.4818
A_3     C     0.9081     0.3511     0.3601
A_2     C     0.6654     0.8309     0.6598
A_1     C     0.4906     0.083     0.8133
A_2     C     0.906     0.1421     0.5989
A_0     C     0.0697     0.6777     0.7987
A_1     C     0.1368     0.2875     0.8107
A_3     C     0.0125     0.1808     0.0456
A_0     C     0.1256     0.4763     0.552
A_1     C     0.4651     0.5813     0.4595
A_3     C     0.9849     0.9621     0.6851
A_0     C     0.6296     0.1414     0.7711
A_2     C     0.909     0.9121     0.2654
A_3     C     0.1701     0.076     0.5672
A_3     C     0.4514     0.1007     0.628
A_2     C     0.3426     0.6977     0.8203
A_1     C     0.8666     0.2004     0.1414
A_1     C     0.4884     0.0462     0.367
A_2     C     0.2286     0.3656     0.4112
A_2     C     0.8809     0.6703     0.2194
A_3     C     0.5868     0.2517     0.8344
A_3     C     0.7908     0.9561     0.669
A_2     C     0.1062     0.647     0.7992
A_3     C     0.925     0.8992     0.7288
A_1     C     0.8637     0.8988     0.4096
A_0     C     0.7052     0.353     0.8191
A_0     C     0.8132     0.1807     0.1717
A_0     C     0.8772     0.9252     0.0246
A_3     C     0.4738     0.21     0.32
A_3     C     0.9988     0.5268     0.8527
