MAT-71

loop_
_symmetry_equiv_pos_as_xyz
  x,y,z
_cell_length_a          43.4196
_cell_length_b          23.7874
_cell_length_c          50.2874
_cell_angle_alpha       90.0000
_cell_angle_beta        90.0000
_cell_angle_gamma       90.0000
loop_
_atom_site_label
_atom_site_type_symbol
_atom_site_fract_x
_atom_site_fract_y
_atom_site_fract_z
A_2     C     0.8901     0.7192     0.3339
A_1     C     0.1001     0.331     0.4204
A_3     C     0.9759     0.0605     0.5297
A_2     C     0.8373     0.2434     0.7584
A_3     C     0.3084     0.7585     0.613
A_2     C     0.0037     0.7387     0.7672
A_0     C     0.6998     0.6181     0.1194
A_0     C     0.841     0.0558     0.7022
A_3     C     0.5157     0.3622     0.6033
A_0     C     0.5871     0.1644     0.0228
A_2     C     0.7021     0.6398     0.9869
A_3     C     0.54     0.2948     0.8123
A_1     C     0.8453     0.3819     0.4933
A_1     C     0.2416     0.3613     0.2009
A_1     C     0.6751     0.5108     0.8263
A_3     C     0.4397     0.3487     0.5502
A_3     C     0.702     0.9023     0.9568
A_3     C     0.2449     0.6094     0.0251
A_0     C     0.3219     0.742     0.5445
A_2     C     0.0318     0.6055     0.379
A_0     C     0.6346     0.0391     0.6834
A_0     C     0.3873     0.0619     0.5656
A_3     C     0.401     0.7906     0.4304
A_2     C     0.2651     0.088     0.4901
A_2     C     0.6396     0.8968     0.7382
A_0     C     0.6618     0.2161     0.5584
A_2     C     0.292     0.3365     0.2892
A_3     C     0.7072     0.2229     0.2925
A_2     C     0.9843     0.2449     0.6024
A_2     C     0.7349     0.3688     0.5933
A_0     C     0.9619     0.883     0.5571
A_3     C     0.5452     0.8599     0.7329
A_3     C     0.0764     0.5912     0.3057
A_3     C     0.7347     0.2531     0.7116
A_0     C     0.2216     0.4254     0.0509
A_2     C     0.8151     0.9702     0.3704
A_0     C     0.8793     0.8729     0.0524
A_0     C     0.9491     0.1142     0.3044
A_1     C     0.4451     0.3532     0.0643
A_3     C     0.5766     0.6614     0.0449
A_1     C     0.6561     0.1586     0.2285
A_3     C     0.5426     0.319     0.9688
A_2     C     0.4278     0.2925     0.1209
A_1     C     0.0441     0.4195     0.2179
A_3     C     0.7984     0.8905     0.8102
A_1     C     0.4294     0.1852     0.1435
A_1     C     0.6854     0.5828     0.9059
A_2     C     0.5422     0.6352     0.0373
A_3     C     0.9303     0.6708     0.1396
A_1     C     0.578     0.3938     0.6682
A_2     C     0.5895     0.9466     0.5719
A_2     C     0.0202     0.9629     0.5467
A_2     C     0.83     0.9284     0.7484
A_1     C     0.3437     0.2772     0.2821
A_3     C     0.1822     0.2481     0.6008
A_3     C     0.1019     0.9676     0.6864
A_3     C     0.6979     0.5819     0.8152
A_1     C     0.3851     0.3545     0.5673
A_1     C     0.226     0.2113     0.8128
A_1     C     0.7222     0.7257     0.6237
A_1     C     0.9755     0.7223     0.2241
A_1     C     0.7904     0.4114     0.72
A_3     C     0.3955     0.7629     0.9916
A_3     C     0.4973     0.066     0.6979
A_3     C     0.5222     0.4983     0.8893
A_3     C     0.8759     0.3063     0.7183
A_1     C     0.8786     0.5633     0.7969
A_2     C     0.2195     0.5589     0.6235
A_1     C     0.8233     0.9932     0.5896
A_0     C     0.9767     0.8986     0.5848
A_3     C     0.9519     0.0022     0.098
A_1     C     0.9735     0.8401     0.3728
A_1     C     0.7982     0.3808     0.1188
A_3     C     0.939     0.4781     0.9045
A_3     C     0.7386     0.4982     0.0513
A_2     C     0.7713     0.9251     0.7599
A_1     C     0.0615     0.8213     0.9303
A_0     C     0.9791     0.2102     0.6103
A_2     C     0.6259     0.5899     0.5493
A_3     C     0.6089     0.1165     0.2836
A_0     C     0.1989     0.8706     0.1717
A_3     C     0.7662     0.9487     0.9556
A_2     C     0.3074     0.1448     0.5905
A_3     C     0.7263     0.8159     0.2831
A_1     C     0.8014     0.6252     0.5819
A_3     C     0.8247     0.5839     0.2133
A_0     C     0.1434     0.3488     0.3276
A_1     C     0.6259     0.6373     0.5968
A_3     C     0.7589     0.4147     0.6573
A_1     C     0.4376     0.794     0.9706
A_3     C     0.5653     0.9807     0.7871
A_3     C     0.0723     0.7278     0.7404
A_3     C     0.1319     0.5102     0.7304
A_2     C     0.5524     0.7894     0.154
A_0     C     0.5586     0.0018     0.6672
A_3     C     0.5041     0.9643     0.9535
A_3     C     0.6991     0.2547     0.5177
A_0     C     0.9231     0.5959     0.2101
A_2     C     0.3964     0.8687     0.1775
A_2     C     0.3571     0.0608     0.1635
A_2     C     0.6395     0.9221     0.4096
A_2     C     0.0071     0.1135     0.9282
A_1     C     0.7365     0.7423     0.3718
A_3     C     0.3047     0.3947     0.8697
A_1     C     0.3265     0.284     0.5274
A_3     C     0.2485     0.0288     0.7035
A_0     C     0.9959     0.8215     0.5053
A_0     C     0.8949     0.9662     0.7736
A_2     C     0.2472     0.1761     0.091
A_2     C     0.0287     0.1003     0.2332
A_0     C     0.9237     0.5245     0.5093
A_1     C     0.1475     0.7566     0.1716
A_2     C     0.5533     0.9995     0.4703
A_0     C     0.4341     0.9081     0.5151
A_0     C     0.9821     0.2317     0.5427
A_2     C     0.9019     0.5848     0.4803
A_1     C     0.3939     0.6368     0.6511
A_2     C     0.9688     0.1498     0.2372
A_0     C     0.5749     0.1873     0.9013
A_1     C     0.3274     0.6554     0.333
A_3     C     0.784     0.5742     0.7497
A_3     C     0.209     0.3144     0.7441
A_0     C     0.7916     0.8594     0.9916
A_2     C     0.3966     0.237     0.4282
A_0     C     0.901     0.3302     0.4485
A_2     C     0.3321     0.2903     0.197
A_3     C     0.2172     0.9744     0.479
A_1     C     0.9553     0.902     0.3736
A_0     C     0.5256     0.2136     0.4007
A_2     C     0.3086     0.8342     0.9481
A_3     C     0.453     0.8959     0.2762
A_1     C     0.2611     0.6591     0.3295
A_3     C     0.7895     0.6732     0.586
A_1     C     0.3436     0.192     0.8247
A_1     C     0.038     0.1314     0.16
A_0     C     0.8968     0.6699     0.7509
A_3     C     0.3523     0.3287     0.1643
A_2     C     0.489     0.2235     0.3067
A_2     C     0.2732     0.5863     0.5433
A_0     C     0.4994     0.3922     0.8702
A_1     C     0.3132     0.0826     0.6764
A_0     C     0.4309     0.3151     0.4484
A_0     C     0.1512     0.0296     0.1074
A_2     C     0.9787     0.8454     0.4861
A_3     C     0.5689     0.6885     0.1766
A_2     C     0.444     0.0926     0.3496
A_0     C     0.6798     0.8892     0.8477
A_3     C     0.9454     0.544     0.0459
A_3     C     0.0472     0.1646     0.3316
A_0     C     0.8547     0.6657     0.1412
A_2     C     0.0319     0.8975     0.6677
A_1     C     0.4784     0.1002     0.6522
A_3     C     0.5348     0.0226     0.5642
A_3     C     0.7551     0.1238     0.9856
A_3     C     0.0394     0.6455     0.8676
A_2     C     0.6507     0.3388     0.9846
A_1     C     0.8922     0.0728     0.6158
A_2     C     0.2175     0.0991     0.9271
A_2     C     0.1755     0.8736     0.3933
A_2     C     0.7897     0.7594     0.2806
A_3     C     0.0792     0.2046     0.7059
A_0     C     0.0718     0.5914     0.9728
A_0     C     0.1087     0.8537     0.0013
A_1     C     0.5647     0.9009     0.2379
A_1     C     0.0684     0.4818     0.827
A_1     C     0.6679     0.0726     0.3934
A_2     C     0.0461     0.6685     0.2312
A_3     C     0.9411     0.6616     0.0258
A_3     C     0.5035     0.0574     0.0155
A_2     C     0.2247     0.8407     0.548
A_0     C     0.5827     0.6171     0.9122
A_2     C     0.558     0.9365     0.5815
A_0     C     0.8843     0.8057     0.0616
A_2     C     0.9873     0.322     0.2614
A_2     C     0.4315     0.8344     0.1278
A_1     C     0.5922     0.8674     0.0436
A_3     C     0.3035     0.7713     0.5104
A_1     C     0.7519     0.242     0.5223
A_1     C     0.315     0.4358     0.0943
A_1     C     0.7309     0.5537     0.5165
A_3     C     0.1364     0.1412     0.1777
A_1     C     0.8739     0.0481     0.4597
A_2     C     0.3359     0.2482     0.7842
A_0     C     0.0542     0.7699     0.3331
A_2     C     0.1241     0.6405     0.4689
A_2     C     0.6282     0.2088     0.5017
A_2     C     0.0656     0.0951     0.2856
A_0     C     0.4208     0.6295     0.0495
A_1     C     0.0333     0.7443     0.6497
A_0     C     0.9897     0.2876     0.0234
A_2     C     0.5294     0.2215     0.4351
A_0     C     0.7476     0.246     0.9496
A_1     C     0.1703     0.3414     0.3114
A_0     C     0.3495     0.7065     0.8691
A_0     C     0.4718     0.8976     0.3186
A_1     C     0.0832     0.2532     0.1411
A_1     C     0.8282     0.6636     0.2615
A_3     C     0.4139     0.6742     0.2653
A_3     C     0.2215     0.2111     0.2066
A_1     C     0.5446     0.4624     0.8935
A_3     C     0.4153     0.6217     0.3083
A_2     C     0.4582     0.9997     0.2019
A_1     C     0.9223     0.0671     0.798
A_3     C     0.8407     0.3101     0.5218
A_1     C     0.8548     0.8181     0.0354
A_2     C     0.7352     0.617     0.8182
A_1     C     0.1257     0.226     0.7019
A_1     C     0.631     0.0528     0.2604
A_3     C     0.0794     0.5686     0.1112
A_3     C     0.8464     0.0566     0.431
A_1     C     0.5195     0.7267     0.8504
A_3     C     0.5557     0.508     0.0336
A_1     C     0.7694     0.3056     0.2317
A_1     C     0.5317     0.7292     0.5407
A_3     C     0.9781     0.1319     0.1374
A_2     C     0.2873     0.5978     0.9248
A_3     C     0.0922     0.3672     0.4793
A_2     C     0.3251     0.9295     0.2081
A_0     C     0.6039     0.5012     0.1857
A_0     C     0.6598     0.3512     0.557
A_0     C     0.5601     0.4908     0.9858
A_1     C     0.9038     0.4921     0.3775
A_3     C     0.236     0.3886     0.1704
A_0     C     0.8154     0.9961     0.0767
A_0     C     0.07     0.319     0.2449
A_3     C     0.9039     0.5845     0.0349
A_0     C     0.7873     0.1357     0.3702
A_2     C     0.3618     0.4424     0.5886
A_3     C     0.99     0.5121     0.4581
A_2     C     0.3523     0.4633     0.7942
A_0     C     0.2249     0.9483     0.5332
A_2     C     0.77     0.7606     0.1204
A_0     C     0.4001     0.5605     0.5753
A_3     C     0.5748     0.5545     0.8621
A_2     C     0.489     0.9154     0.7854
A_2     C     0.3551     0.1223     0.4457
A_1     C     0.8913     0.5735     0.8033
A_1     C     0.7206     0.8331     0.9574
A_0     C     0.65     0.6299     0.6331
A_0     C     0.8153     0.1006     0.1787
A_2     C     0.3895     0.235     0.6814
A_2     C     0.3948     0.6511     0.9224
A_1     C     0.9753     0.6308     0.3526
A_3     C     0.5472     0.1622     0.1168
A_0     C     0.1593     0.4331     0.8884
A_0     C     0.6397     0.6404     0.3768
A_0     C     0.4262     0.8551     0.6827
A_3     C     0.2935     0.4794     0.4109
A_3     C     0.61     0.3782     0.7734
A_0     C     0.3968     0.1377     0.5331
A_2     C     0.4128     0.0455     0.3342
A_0     C     0.8623     0.9621     0.5628
A_2     C     0.7041     0.7369     0.7786
A_3     C     0.9458     0.1435     0.8777
A_2     C     0.6969     0.9317     0.3524
A_2     C     0.7674     0.8702     0.8677
A_1     C     0.1609     0.6651     0.1904
A_2     C     0.7011     0.9397     0.7945
A_1     C     0.1983     0.7167     0.8122
A_1     C     0.1068     0.4279     0.4628
A_3     C     0.1557     0.6701     0.8419
A_3     C     0.8497     0.5134     0.9534
A_3     C     0.8965     0.1725     0.2717
A_0     C     0.3794     0.3436     0.843
A_0     C     0.3583     0.7031     0.3599
A_0     C     0.0004     0.2066     0.299
A_0     C     0.0454     0.0728     0.8135
A_0     C     0.2541     0.3217     0.9201
A_2     C     0.095     0.5619     0.1579
A_3     C     0.8481     0.4221     0.4543
A_3     C     0.8561     0.0459     0.1655
A_3     C     0.4524     0.5436     0.8465
A_1     C     0.7899     0.9825     0.8943
A_2     C     0.2426     0.0192     0.0836
A_1     C     0.0629     0.7152     0.4836
A_0     C     0.8279     0.4566     0.5887
A_1     C     0.6314     0.6776     0.1329
A_0     C     0.6686     0.2033     0.634
A_1     C     0.6902     0.4248     0.3435
A_0     C     0.9961     0.7204     0.8014
A_3     C     0.7149     0.6311     0.7692
A_0     C     0.8742     0.9996     0.67
A_3     C     0.3261     0.9132     0.0368
A_0     C     0.6221     0.0679     0.8586
A_1     C     0.0628     0.4025     0.084
A_1     C     0.5953     0.4898     0.1136
A_0     C     0.8279     0.1549     0.705
A_3     C     0.9595     0.3966     0.0615
A_0     C     0.1256     0.7887     0.3319
A_0     C     0.3371     0.2845     0.203
A_2     C     0.2928     0.7735     0.0048
A_0     C     0.9188     0.0998     0.0321
A_0     C     0.9324     0.9944     0.6739
A_2     C     0.1057     0.6931     0.2616
A_0     C     0.7151     0.0264     0.4342
A_3     C     0.1047     0.049     0.8832
A_0     C     0.8252     0.1411     0.2631
A_0     C     0.3086     0.3123     0.0002
A_2     C     0.2554     0.3335     0.1417
A_0     C     0.6752     0.5322     0.7807
A_1     C     0.874     0.7179     0.2594
A_0     C     0.5889     0.3605     0.6972
A_1     C     0.4663     0.229     0.1176
A_1     C     0.0973     0.1551     0.1221
A_0     C     0.2538     0.0504     0.4873
A_1     C     0.7745     0.58     0.0806
A_1     C     0.9167     0.9379     0.2842
A_3     C     0.9374     0.4717     0.6865
A_2     C     0.0445     0.7739     0.4906
A_0     C     0.149     0.6003     0.7136
A_3     C     0.3278     0.5334     0.4101
A_3     C     0.0205     0.3942     0.8791
A_2     C     0.5713     0.5504     0.1858
A_1     C     0.2809     0.6617     0.5243
A_3     C     0.334     0.9893     0.5459
A_3     C     0.9399     0.3244     0.0643
A_2     C     0.0385     0.7709     0.099
A_1     C     0.7254     0.8359     0.7326
A_2     C     0.6555     0.099     0.2877
A_0     C     0.6694     0.2497     0.3214
A_3     C     0.3539     0.5958     0.8274
A_1     C     0.0636     0.0841     0.2454
A_0     C     0.7103     0.2041     0.0745
A_3     C     0.2231     0.2036     0.8354
A_3     C     0.912     0.678     0.059
A_2     C     0.8251     0.2822     0.0534
A_3     C     0.4454     0.5791     0.8118
A_3     C     0.4848     0.1525     0.2009
A_0     C     0.6053     0.706     0.0606
A_2     C     0.7163     0.3579     0.4814
A_3     C     0.4833     0.8514     0.5327
A_1     C     0.0317     0.1636     0.87
A_1     C     0.1529     0.7653     0.7649
A_2     C     0.3728     0.1962     0.2671
A_3     C     0.6998     0.1006     0.417
A_1     C     0.8112     0.634     0.018
A_2     C     0.8815     0.7533     0.4756
A_0     C     0.0773     0.9582     0.283
A_3     C     0.8565     0.7094     0.6131
A_1     C     0.0805     0.2518     0.1901
A_0     C     0.4085     0.559     0.5054
A_1     C     0.6833     0.0338     0.5266
A_0     C     0.0844     0.7566     0.3865
A_2     C     0.0687     0.8876     0.0884
A_1     C     0.0441     0.9175     0.0664
A_1     C     0.5934     0.602     0.0136
A_1     C     0.3667     0.1343     0.0784
A_1     C     0.801     0.0941     0.1185
A_3     C     0.2295     0.3922     0.1569
A_2     C     0.457     0.2833     0.1359
A_3     C     0.8427     0.1861     0.4235
A_2     C     0.024     0.2577     0.6289
A_1     C     0.2247     0.7132     0.5454
A_2     C     0.675     0.7153     0.0066
A_2     C     0.0729     0.0265     0.6627
A_2     C     0.6975     0.76     0.1008
A_0     C     0.6633     0.3741     0.2001
A_1     C     0.2262     0.04     0.8579
A_3     C     0.8659     0.7338     0.8534
A_0     C     0.1702     0.124     0.9213
A_2     C     0.6797     0.7742     0.1223
A_1     C     0.9058     0.6057     0.0873
A_3     C     0.4494     0.784     0.1739
A_2     C     0.7182     0.9084     0.4334
A_2     C     0.6092     0.406     0.182
A_0     C     0.5024     0.6879     0.4186
A_1     C     0.2717     0.8535     0.3942
A_3     C     0.3923     0.4952     0.2247
A_1     C     0.7709     0.3333     0.8837
A_0     C     0.8822     0.4138     0.0586
A_2     C     0.9516     0.4824     0.7645
A_1     C     0.2064     0.1696     0.84
A_1     C     0.0784     0.3216     0.5511
A_0     C     0.2754     0.4967     0.8021
A_2     C     0.9029     0.5279     0.439
A_1     C     0.168     0.2534     0.5659
A_0     C     0.9156     0.6543     0.3634
A_3     C     0.0007     0.2259     0.3783
A_2     C     0.6449     0.0652     0.1896
A_0     C     0.8356     0.5185     0.9272
A_0     C     0.9148     0.9139     0.4921
A_2     C     0.2205     0.7889     0.5741
A_3     C     0.0459     0.127     0.3594
A_1     C     0.234     0.8586     0.3931
A_0     C     0.4947     0.1234     0.3841
A_2     C     0.6803     0.9053     0.7276
A_0     C     0.6764     0.0057     0.0382
A_1     C     0.3902     0.0099     0.5427
A_3     C     0.3766     0.1852     0.5357
A_1     C     0.9907     0.6723     0.6682
A_1     C     0.5317     0.2125     0.3091
A_1     C     0.5517     0.3844     0.9748
A_3     C     0.6362     0.2532     0.0512
A_0     C     0.9584     0.3236     0.0437
A_1     C     0.9247     0.3676     0.7584
A_3     C     0.45     0.36     0.6214
A_3     C     0.1822     0.7771     0.7739
A_3     C     0.8633     0.8725     0.9278
A_3     C     0.1025     0.7955     0.3736
A_2     C     0.2573     0.0663     0.87
A_3     C     0.8041     0.1706     0.9019
A_1     C     0.2429     0.618     0.0991
A_3     C     0.6029     0.8     0.2347
A_3     C     0.3379     0.2721     0.9813
A_2     C     0.9553     0.5395     0.8899
A_1     C     0.6853     0.088     0.1331
A_3     C     0.5029     0.4361     0.9003
A_1     C     0.6856     0.4964     0.7588
A_2     C     0.0095     0.6972     0.9705
A_1     C     0.2559     0.001     0.1056
A_3     C     0.7783     0.5186     0.9743
A_1     C     0.0667     0.8398     0.3648
A_3     C     0.322     0.8686     0.2544
A_0     C     0.2896     0.1594     0.6215
A_1     C     0.9215     0.1359     0.0969
A_3     C     0.0062     0.8234     0.4133
A_3     C     0.8917     0.8484     0.736
A_3     C     0.6426     0.9236     0.628
A_2     C     0.4322     0.0518     0.9936
A_2     C     0.1097     0.4489     0.4194
A_2     C     0.1986     0.2873     0.6104
A_2     C     0.3309     0.7883     0.2765
A_3     C     0.8711     0.4886     0.8911
A_2     C     0.4471     0.9131     0.4822
A_2     C     0.1403     0.2442     0.8199
A_3     C     0.0887     0.2812     0.5118
A_2     C     0.8601     0.6402     0.3625
A_2     C     0.658     0.0353     0.7943
A_3     C     0.6625     0.7073     0.2009
A_2     C     0.9591     0.0882     0.0425
A_1     C     0.3668     0.4817     0.7545
A_2     C     0.6908     0.5875     0.5858
A_2     C     0.0583     0.5596     0.932
A_1     C     0.4189     0.1276     0.2341
A_3     C     0.2829     0.2155     0.6495
A_2     C     0.4352     0.4435     0.0412
A_0     C     0.0503     0.402     0.2215
A_0     C     0.4264     0.4357     0.0796
A_3     C     0.0488     0.7449     0.4522
A_0     C     0.7442     0.78     0.6206
A_3     C     0.884     0.3316     0.0774
A_3     C     0.3773     0.6792     0.9925
A_2     C     0.4749     0.7397     0.0131
A_2     C     0.981     0.0566     0.4427
A_2     C     0.5216     0.8458     0.9316
A_0     C     0.6168     0.6462     0.3247
A_3     C     0.4279     0.1734     0.0476
A_0     C     0.9203     0.1726     0.0657
A_0     C     0.3403     0.8836     0.0234
A_0     C     0.9439     0.6649     0.2659
A_0     C     0.5467     0.5877     0.8794
A_1     C     0.7097     0.2348     0.4893
A_1     C     0.6872     0.2067     0.1987
A_0     C     0.1006     0.0982     0.5426
A_2     C     0.1215     0.3872     0.854
A_2     C     0.7953     0.3607     0.735
A_1     C     0.887     0.5802     0.2788
A_3     C     0.5438     0.9878     0.2464
A_0     C     0.2276     0.6668     0.9553
A_0     C     0.988     0.9237     0.5255
A_2     C     0.9481     0.1565     0.3507
A_3     C     0.888     0.1224     0.0369
A_2     C     0.594     0.8927     0.1518
A_3     C     0.0387     0.9328     0.6258
A_0     C     0.704     0.8461     0.9199
A_3     C     0.0265     0.7798     0.9761
A_2     C     0.8598     0.2712     0.2315
A_1     C     0.3135     0.679     0.6767
A_2     C     0.5431     0.894     0.5949
A_2     C     0.4434     0.8389     0.0569
A_0     C     0.1101     0.0884     0.8243
A_0     C     0.585     0.6693     0.2232
A_0     C     0.773     0.7643     0.6308
A_3     C     0.5934     0.3198     0.9544
A_3     C     0.1803     0.0846     0.4484
A_1     C     0.2288     0.4941     0.4392
A_2     C     0.1677     0.3997     0.0111
A_3     C     0.8103     0.8143     0.2802
A_0     C     0.0984     0.539     0.1566
A_2     C     0.223     0.1857     0.8719
A_2     C     0.0067     0.9282     0.5708
A_2     C     0.4163     0.6219     0.5292
A_2     C     0.293     0.8585     0.7256
A_1     C     0.3488     0.2622     0.5692
A_2     C     0.2993     0.1804     0.9079
A_1     C     0.3403     0.9386     0.9456
A_2     C     0.7631     0.5165     0.6797
A_3     C     0.6066     0.2664     0.2381
A_0     C     0.4527     0.6727     0.192
A_1     C     0.5907     0.592     0.5538
A_2     C     0.3518     0.4985     0.3183
A_3     C     0.1018     0.4424     0.368
A_3     C     0.2556     0.9651     0.7339
A_0     C     0.8548     0.0089     0.4542
A_2     C     0.0226     0.93     0.7149
A_0     C     0.0008     0.5     0.925
A_3     C     0.7009     0.3899     0.8466
A_2     C     0.3001     0.851     0.7606
A_1     C     0.6242     0.9028     0.2324
A_3     C     0.2925     0.7948     0.0771
A_3     C     0.1099     0.3521     0.5568
A_1     C     0.5481     0.8301     0.6172
A_0     C     0.9742     0.9503     0.01
A_3     C     0.1138     0.8303     0.5837
A_1     C     0.5203     0.0028     0.6718
A_3     C     0.5127     0.6485     0.9093
A_3     C     0.8835     0.8095     0.1669
A_0     C     0.9135     0.1285     0.6539
A_3     C     0.203     0.6639     0.3654
A_0     C     0.3867     0.5802     0.5466
A_0     C     0.1648     0.694     0.8988
A_3     C     0.8395     0.5592     0.8577
A_2     C     0.9494     0.5218     0.0689
A_3     C     0.6647     0.1584     0.1193
A_1     C     0.6689     0.4316     0.0755
A_0     C     0.2483     0.584     0.5487
A_1     C     0.4446     0.8995     0.035
A_2     C     0.6061     0.0693     0.6442
A_0     C     0.1543     0.7728     0.562
A_0     C     0.0764     0.5212     0.6931
A_2     C     0.1852     0.8001     0.2925
A_0     C     0.8665     0.0877     0.2226
A_3     C     0.5185     0.0891     0.141
A_0     C     0.307     0.3192     0.5713
A_1     C     0.8914     0.0882     0.534
A_2     C     0.3016     0.3671     0.5058
A_3     C     0.4536     0.7999     0.6486
A_0     C     0.0497     0.3671     0.7535
A_0     C     0.0325     0.9184     0.0339
A_3     C     0.5807     0.3759     0.0943
A_3     C     0.0917     0.3838     0.4368
A_2     C     0.4488     0.6021     0.9513
A_1     C     0.6209     0.8076     0.4673
A_1     C     0.4824     0.4479     0.6067
A_2     C     0.0831     0.7202     0.3165
A_1     C     0.9762     0.5828     0.3716
A_2     C     0.1458     0.5144     0.6932
A_2     C     0.4401     0.4296     0.0618
A_3     C     0.1443     0.2519     0.1431
A_1     C     0.6411     0.5989     0.8843
A_0     C     0.1056     0.0101     0.2183
A_2     C     0.2183     0.4573     0.3359
A_1     C     0.6536     0.2316     0.7581
A_2     C     0.8826     0.4603     0.2047
A_3     C     0.524     0.6988     0.6375
A_0     C     0.5631     0.496     0.9855
A_2     C     0.1236     0.2318     0.5887
A_1     C     0.8764     0.7585     0.527
A_1     C     0.1566     0.8063     0.1435
A_3     C     0.0051     0.1198     0.4725
A_2     C     0.3712     0.128     0.2722
A_0     C     0.2675     0.677     0.1578
A_0     C     0.6547     0.2648     0.0426
A_0     C     0.4111     0.3209     0.0866
A_2     C     0.865     0.0379     0.7942
A_1     C     0.6212     0.6157     0.3159
A_1     C     0.4544     0.9536     0.9998
A_2     C     0.7274     0.4895     0.3909
A_0     C     0.738     0.34     0.2554
A_2     C     0.6699     0.3557     0.1372
A_1     C     0.7478     0.8042     0.0299
A_1     C     0.5428     0.3073     0.1527
A_0     C     0.2058     0.2965     0.3085
A_0     C     0.659     0.4583     0.4688
A_2     C     0.0555     0.9075     0.7387
A_3     C     0.975     0.6297     0.9894
A_3     C     0.114     0.7724     0.41
A_3     C     0.457     0.8726     0.3879
A_0     C     0.4735     0.6902     0.9595
A_2     C     0.8397     0.599     0.5787
A_1     C     0.9387     0.7666     0.9679
A_1     C     0.2825     0.7087     0.5151
A_1     C     0.0369     0.124     0.3614
A_3     C     0.6587     0.7974     0.8108
A_2     C     0.5011     0.384     0.2468
A_2     C     0.6924     0.316     0.0764
A_0     C     0.6731     0.5132     0.517
A_3     C     0.2558     0.1667     0.4694
A_3     C     0.4626     0.3002     0.5547
A_2     C     0.9455     0.8417     0.5626
A_1     C     0.8982     0.9308     0.7385
A_1     C     0.2518     0.6238     0.0348
A_1     C     0.9092     0.0693     0.2078
A_2     C     0.1906     0.2322     0.7626
A_0     C     0.7437     0.2501     0.2781
A_2     C     0.5157     0.4576     0.2381
A_3     C     0.0835     0.0058     0.813
A_0     C     0.5172     0.712     0.8681
A_0     C     0.4021     0.2682     0.3587
A_0     C     0.5786     0.6562     0.9222
A_1     C     0.1556     0.6144     0.3563
A_2     C     0.833     0.5229     0.2996
A_0     C     0.9135     0.0951     0.1712
A_2     C     0.6683     0.3868     0.6012
A_2     C     0.1598     0.9738     0.7323
A_1     C     0.7096     0.8952     0.0012
A_3     C     0.9973     0.2128     0.4439
A_2     C     0.7789     0.6327     0.933
A_1     C     0.2903     0.2118     0.448
A_3     C     0.9046     0.0929     0.1105
A_1     C     0.533     0.4788     0.5128
A_0     C     0.4089     0.247     0.6065
A_2     C     0.1876     0.203     0.3517
A_1     C     0.2189     0.0371     0.3355
A_3     C     0.3873     0.9254     0.4936
A_1     C     0.1125     0.3113     0.3402
A_0     C     0.9054     0.3519     0.8239
A_1     C     0.757     0.912     0.8192
A_3     C     0.4594     0.6634     0.9219
A_0     C     0.9138     0.3854     0.1967
A_3     C     0.1671     0.1663     0.5664
A_0     C     0.7393     0.9753     0.5378
A_1     C     0.4951     0.9764     0.9071
A_3     C     0.2399     0.1211     0.3212
A_1     C     0.8947     0.0473     0.8632
A_0     C     0.6072     0.7771     0.3723
A_3     C     0.7578     0.4001     0.6353
A_0     C     0.6232     0.8542     0.2061
A_3     C     0.6595     0.2544     0.5173
A_1     C     0.1708     0.1505     0.6926
A_0     C     0.7708     0.6071     0.2888
A_1     C     0.1897     0.6516     0.9148
A_2     C     0.0576     0.8122     0.7917
A_1     C     0.1178     0.4042     0.2256
A_2     C     0.8358     0.009     0.469
A_3     C     0.9042     0.5918     0.8654
A_2     C     0.6786     0.9     0.9242
A_3     C     0.5799     0.5872     0.6124
A_0     C     0.4904     0.0194     0.7727
A_1     C     0.5485     0.7547     0.2289
A_0     C     0.9975     0.8086     0.9889
A_0     C     0.0953     0.7448     0.0367
A_0     C     0.1193     0.2271     0.1077
A_0     C     0.5217     0.1106     0.8359
A_0     C     0.9231     0.119     0.2641
A_0     C     0.8863     0.8049     0.0355
A_0     C     0.984     0.0608     0.7764
A_0     C     0.9042     0.7439     0.2151
