MAT-85

loop_
_symmetry_equiv_pos_as_xyz
  x,y,z
_cell_length_a          46.5427
_cell_length_b          23.3521
_cell_length_c          25.6024
_cell_angle_alpha       90.0000
_cell_angle_beta        90.0000
_cell_angle_gamma       90.0000
loop_
_atom_site_label
_atom_site_type_symbol
_atom_site_fract_x
_atom_site_fract_y
_atom_site_fract_z
A_3     C     0.7199     0.0813     0.553
A_0     C     0.1368     0.7069     0.7645
A_1     C     0.532     0.346     0.2018
A_2     C     0.3072     0.2337     0.9144
A_1     C     0.3559     0.9813     0.5634
A_1     C     0.7231     0.8382     0.2608
A_0     C     0.3228     0.761     0.7455
A_1     C     0.6343     0.7249     0.5365
A_2     C     0.8815     0.3888     0.695
A_3     C     0.8398     0.2809     0.805
A_2     C     0.0753     0.5126     0.7523
A_0     C     0.4186     0.6113     0.6394
A_2     C     0.3492     0.4576     0.5427
A_0     C     0.4406     0.5615     0.9506
A_2     C     0.9433     0.7009     0.5084
A_1     C     0.3244     0.5727     0.4328
A_0     C     0.0261     0.44     0.983
A_3     C     0.4359     0.9061     0.1912
A_3     C     0.5186     0.2228     0.3619
A_1     C     0.3     0.7465     0.328
A_3     C     0.5692     0.6111     0.5542
A_3     C     0.1157     0.9592     0.3607
A_2     C     0.9305     0.5743     0.9651
A_2     C     0.6713     0.4107     0.3099
A_3     C     0.3364     0.7298     0.472
A_3     C     0.7023     0.6168     0.9365
A_2     C     0.7672     0.033     0.5257
A_1     C     0.0247     0.1965     0.9871
A_3     C     0.5332     0.9298     0.7251
A_3     C     0.0588     0.2607     0.4248
A_0     C     0.7013     0.0043     0.2484
A_1     C     0.3091     0.9225     0.001
A_2     C     0.5498     0.7456     0.9747
A_0     C     0.5599     0.1014     0.9339
A_2     C     0.8154     0.7924     0.1712
A_2     C     0.9085     0.0844     0.8828
A_0     C     0.7894     0.6006     0.1158
A_2     C     0.0718     0.4666     0.5946
A_1     C     0.6344     0.2451     0.4982
A_0     C     0.9195     0.0273     0.5987
A_0     C     0.9573     0.2101     0.674
A_2     C     0.9804     0.9141     0.4867
A_3     C     0.7077     0.1612     0.4226
A_2     C     0.741     0.5992     0.9469
A_0     C     0.4481     0.3437     0.6391
A_1     C     0.9208     0.3398     0.65
A_0     C     0.3526     0.837     0.4892
A_3     C     0.8954     0.509     0.1661
A_3     C     0.2601     0.8713     0.2353
A_1     C     0.6228     0.8244     0.5229
A_2     C     0.7624     0.2699     0.0711
A_3     C     0.375     0.513     0.1686
A_1     C     0.0174     0.8447     0.8795
A_2     C     0.1603     0.8725     0.7322
A_1     C     0.1464     0.2452     0.5812
A_0     C     0.1739     0.9555     0.0865
A_0     C     0.6113     0.6165     0.5636
A_3     C     0.2174     0.0789     0.7963
A_2     C     0.0378     0.0539     0.6516
A_2     C     0.9217     0.8473     0.6605
A_0     C     0.5961     0.0676     0.4697
A_0     C     0.9485     0.4437     0.7673
A_2     C     0.4237     0.4855     0.4112
A_2     C     0.1754     0.401     0.5742
A_2     C     0.198     0.5949     0.501
A_2     C     0.5858     0.9665     0.9152
A_1     C     0.2848     0.9327     0.0734
A_2     C     0.5874     0.9759     0.8436
A_2     C     0.691     0.2858     0.8767
A_1     C     0.0883     0.9234     0.8565
A_1     C     0.0275     0.6597     0.507
A_2     C     0.7891     0.9183     0.4751
A_3     C     0.7409     0.3559     0.4904
A_2     C     0.4824     0.9782     0.8016
A_0     C     0.6556     0.804     0.1352
A_2     C     0.5957     0.594     0.5004
A_1     C     0.6069     0.7299     0.339
A_1     C     0.1719     0.3528     0.2536
A_3     C     0.8032     0.2182     0.7801
A_2     C     0.6968     0.4168     0.2819
A_1     C     0.9038     0.9156     0.5838
A_2     C     0.5255     0.6304     0.7219
A_2     C     0.9917     0.4513     0.569
A_2     C     0.0337     0.3406     0.0002
A_0     C     0.9958     0.2713     0.3795
A_2     C     0.7705     0.8882     0.8192
A_3     C     0.7631     0.0547     0.9193
A_0     C     0.8376     0.9841     0.4676
A_1     C     0.9676     0.6619     0.8592
A_2     C     0.5637     0.4829     0.0967
A_0     C     0.1813     0.5816     0.7815
A_0     C     0.5676     0.1417     0.1164
A_2     C     0.7889     0.5561     0.4932
A_0     C     0.5546     0.6399     0.041
A_1     C     0.6756     0.5195     0.9866
A_2     C     0.8227     0.2493     0.9184
A_0     C     0.6546     0.9832     0.7471
A_3     C     0.5687     0.2163     0.0744
A_3     C     0.8994     0.3123     0.6772
A_2     C     0.5508     0.277     0.2398
A_0     C     0.9864     0.835     0.1037
A_1     C     0.3155     0.9923     0.2258
A_2     C     0.3077     0.8769     0.3374
A_2     C     0.9029     0.8392     0.907
A_1     C     0.8381     0.315     0.7903
A_1     C     0.0004     0.9539     0.18
A_1     C     0.3265     0.5609     0.0843
A_2     C     0.8417     0.1324     0.1064
A_2     C     0.2867     0.4926     0.2438
A_2     C     0.5868     0.877     0.0484
A_3     C     0.6728     0.0908     0.552
A_3     C     0.1454     0.3026     0.4467
A_0     C     0.5567     0.7273     0.6405
A_0     C     0.9132     0.5739     0.0034
A_2     C     0.4802     0.3624     0.8834
A_2     C     0.0164     0.4522     0.0698
A_2     C     0.1334     0.8463     0.7192
A_1     C     0.856     0.3211     0.5548
A_2     C     0.6286     0.5021     0.5263
A_1     C     0.6952     0.5989     0.8496
A_1     C     0.5663     0.3106     0.4108
A_0     C     0.1098     0.5555     0.4358
A_3     C     0.7686     0.893     0.8068
A_2     C     0.9051     0.9067     0.0539
A_3     C     0.6029     0.0708     0.0938
A_3     C     0.865     0.4637     0.477
A_1     C     0.6216     0.8011     0.0556
A_3     C     0.542     0.782     0.238
A_0     C     0.0383     0.0262     0.1719
A_2     C     0.3332     0.5662     0.6749
A_1     C     0.8076     0.1322     0.8599
A_1     C     0.1045     0.0645     0.1543
A_0     C     0.1655     0.0461     0.6601
A_0     C     0.1522     0.3197     0.8451
A_0     C     0.9133     0.4066     0.1563
A_0     C     0.0918     0.8677     0.7321
A_2     C     0.9969     0.1053     0.7651
A_3     C     0.5792     0.4414     0.8942
A_0     C     0.8775     0.0177     0.7132
A_3     C     0.6111     0.7415     0.5497
A_0     C     0.9291     0.1006     0.5031
A_3     C     0.9947     0.3429     0.4045
A_2     C     0.6981     0.8105     0.5838
A_1     C     0.5816     0.1332     0.7316
A_2     C     0.8555     0.1822     0.6788
A_0     C     0.1579     0.6802     0.849
A_1     C     0.2062     0.2755     0.8938
A_3     C     0.0343     0.1012     0.1056
A_0     C     0.1824     0.4434     0.4581
A_1     C     0.5357     0.5418     0.4317
A_3     C     0.0576     0.9784     0.6694
A_0     C     0.6449     0.226     0.8052
A_2     C     0.8355     0.9685     0.2745
A_3     C     0.0824     0.1261     0.6385
A_3     C     0.4411     0.1713     0.6816
A_2     C     0.2592     0.7213     0.9134
A_1     C     0.8322     0.1736     0.1567
A_1     C     0.5877     0.0607     0.4117
A_2     C     0.3046     0.2943     0.3584
A_2     C     0.7952     0.6437     0.1849
A_3     C     0.5549     0.1989     0.8529
A_3     C     0.6968     0.9863     0.6664
A_2     C     0.1876     0.5741     0.8595
A_3     C     0.9233     0.9965     0.8027
A_1     C     0.782     0.8261     0.4997
A_0     C     0.6869     0.3552     0.8466
A_0     C     0.8061     0.1825     0.1395
A_0     C     0.8859     0.9004     0.0932
A_3     C     0.5547     0.2913     0.2656
A_3     C     0.9098     0.5243     0.8842
A_3     C     0.6676     0.6003     0.0776
A_3     C     0.5813     0.3635     0.1447
A_3     C     0.3568     0.7268     0.7697
A_3     C     0.1529     0.5747     0.3826
A_3     C     0.0207     0.5325     0.4047
A_3     C     0.429     0.4119     0.0185
A_3     C     0.1927     0.7255     0.6212
A_3     C     0.0809     0.3257     0.5009
A_3     C     0.2641     0.2766     0.6586
A_3     C     0.1908     0.2033     0.207
A_3     C     0.8212     0.1297     0.066
A_3     C     0.72     0.0041     0.0876
A_3     C     0.4545     0.6228     0.8707
A_3     C     0.9638     0.4333     0.6228
A_3     C     0.2268     0.0008     0.1405
A_3     C     0.6094     0.1627     0.5818
A_3     C     0.5932     0.3873     0.0617
A_3     C     0.2452     0.6481     0.4378
A_3     C     0.0616     0.8461     0.1881
A_3     C     0.8853     0.6087     0.5081
A_3     C     0.1855     0.6883     0.8271
A_3     C     0.9117     0.4402     0.1273
A_3     C     0.7287     0.0557     0.4252
A_3     C     0.2009     0.718     0.1744
A_3     C     0.5287     0.6559     0.9168
A_3     C     0.3698     0.5883     0.1961
A_3     C     0.9094     0.0648     0.6523
A_3     C     0.0977     0.7219     0.7764
A_3     C     0.6175     0.0551     0.4654
A_3     C     0.3172     0.6669     0.0073
A_3     C     0.249     0.5506     0.644
A_3     C     0.2173     0.8003     0.3266
A_3     C     0.1525     0.4127     0.2925
A_3     C     0.2708     0.8345     0.9542
A_3     C     0.6781     0.8292     0.6499
A_3     C     0.721     0.9031     0.2604
A_3     C     0.9532     0.5304     0.1052
A_3     C     0.4747     0.9524     0.3873
A_3     C     0.8038     0.7818     0.7211
A_3     C     0.5047     0.4684     0.4898
A_3     C     0.3314     0.8427     0.0459
A_3     C     0.4696     0.4275     0.1431
A_3     C     0.1216     0.9247     0.8733
A_3     C     0.0451     0.4832     0.7984
A_3     C     0.8631     0.6013     0.8183
A_3     C     0.9006     0.9653     0.4366
A_3     C     0.3134     0.0244     0.0788
A_3     C     0.7816     0.432     0.0312
A_3     C     0.1691     0.6297     0.9316
A_3     C     0.1912     0.9337     0.5776
A_3     C     0.7517     0.1712     0.5766
A_3     C     0.4122     0.3469     0.8658
A_3     C     0.964     0.5176     0.4389
A_3     C     0.9265     0.7423     0.1057
A_3     C     0.4971     0.5706     0.8079
A_3     C     0.3996     0.7015     0.6615
A_3     C     0.4897     0.4934     0.5613
A_3     C     0.3087     0.8097     0.6557
A_3     C     0.8038     0.5209     0.2891
A_3     C     0.4589     0.1783     0.2551
A_3     C     0.0753     0.1894     0.6931
A_3     C     0.2852     0.9117     0.6958
A_3     C     0.9797     0.881     0.6404
A_3     C     0.9314     0.3808     0.7113
A_3     C     0.5492     0.0078     0.7046
A_3     C     0.8931     0.9068     0.213
A_3     C     0.6015     0.0259     0.1747
A_3     C     0.0942     0.9781     0.871
A_3     C     0.5427     0.7886     0.3133
A_3     C     0.1414     0.3339     0.3705
A_3     C     0.303     0.5705     0.3576
A_3     C     0.8556     0.8053     0.875
A_3     C     0.7745     0.8785     0.3571
A_3     C     0.1178     0.5923     0.5244
A_3     C     0.5953     0.0353     0.0594
A_3     C     0.7351     0.0922     0.1396
A_3     C     0.2635     0.1212     0.7988
A_3     C     0.2938     0.1211     0.3774
A_3     C     0.7484     0.3171     0.6535
A_3     C     0.0398     0.8574     0.9134
A_3     C     0.5655     0.2853     0.3132
A_3     C     0.7005     0.8688     0.3103
A_3     C     0.3595     0.7523     0.0924
A_3     C     0.8334     0.4492     0.5571
A_3     C     0.7342     0.8198     0.8736
A_3     C     0.5464     0.8136     0.6335
A_3     C     0.9063     0.4926     0.9557
A_3     C     0.328     0.6878     0.8628
A_3     C     0.6304     0.3876     0.5302
A_3     C     0.5389     0.9696     0.532
A_3     C     0.5526     0.7827     0.789
A_3     C     0.3013     0.6413     0.6281
A_3     C     0.56     0.5555     0.2473
A_3     C     0.9749     0.8161     0.1138
A_3     C     0.5472     0.7332     0.9655
A_3     C     0.92     0.3608     0.4456
A_3     C     0.1272     0.2061     0.6431
A_3     C     0.0364     0.5425     0.702
A_3     C     0.5079     0.2659     0.9955
A_3     C     0.9748     0.6841     0.1426
A_3     C     0.5673     0.1928     0.5974
A_3     C     0.1221     0.8283     0.4757
A_3     C     0.4561     0.6812     0.259
A_3     C     0.8577     0.0597     0.177
A_3     C     0.464     0.4598     0.8702
A_3     C     0.1092     0.9705     0.9857
A_3     C     0.5027     0.5051     0.1029
A_3     C     0.8466     0.2889     0.7233
A_3     C     0.0852     0.4416     0.061
A_3     C     0.0578     0.9796     0.732
A_3     C     0.1044     0.4561     0.3749
A_3     C     0.9353     0.2978     0.496
A_3     C     0.2146     0.1591     0.8596
A_3     C     0.1347     0.4735     0.1702
A_3     C     0.3747     0.0978     0.197
A_3     C     0.6913     0.5387     0.2132
A_3     C     0.6048     0.1787     0.574
A_3     C     0.3087     0.4172     0.4823
A_3     C     0.6669     0.0027     0.8692
A_3     C     0.3012     0.0106     0.4594
A_3     C     0.9799     0.7549     0.8301
A_3     C     0.3486     0.4467     0.197
A_3     C     0.5248     0.0784     0.8828
A_3     C     0.8626     0.572     0.6062
A_3     C     0.879     0.827     0.6278
A_3     C     0.6723     0.839     0.6671
A_3     C     0.153     0.885     0.2693
A_3     C     0.3161     0.0722     0.525
A_3     C     0.6355     0.7068     0.5388
A_3     C     0.5826     0.9608     0.9715
A_3     C     0.1749     0.7173     0.4062
A_3     C     0.0611     0.0156     0.6747
A_3     C     0.5124     0.0886     0.7935
A_3     C     0.0423     0.4522     0.7571
A_3     C     0.5884     0.622     0.0012
A_3     C     0.5541     0.2281     0.1125
A_3     C     0.1845     0.8217     0.6123
A_3     C     0.5594     0.8373     0.5955
A_3     C     0.5718     0.7993     0.4792
A_3     C     0.4173     0.684     0.2698
A_3     C     0.7977     0.5656     0.1654
A_3     C     0.476     0.6203     0.5174
A_3     C     0.615     0.5844     0.2853
A_3     C     0.6174     0.6602     0.3359
A_3     C     0.0109     0.1341     0.9775
A_3     C     0.7151     0.7382     0.7445
A_3     C     0.3075     0.2136     0.5019
A_3     C     0.7074     0.5083     0.9379
A_3     C     0.0827     0.8072     0.2239
A_3     C     0.9926     0.0668     0.4569
A_3     C     0.3606     0.3288     0.9875
A_3     C     0.8649     0.4725     0.8051
A_3     C     0.7615     0.1928     0.5046
A_3     C     0.6171     0.0355     0.6754
A_3     C     0.6358     0.5275     0.0386
A_3     C     0.8995     0.0758     0.0646
A_3     C     0.8679     0.6191     0.6717
A_3     C     0.0337     0.9856     0.4906
A_3     C     0.0837     0.0876     0.5838
A_3     C     0.35     0.3685     0.7291
A_3     C     0.132     0.6099     0.4236
A_3     C     0.5296     0.6542     0.3828
A_3     C     0.2877     0.8775     0.5765
A_3     C     0.3868     0.6295     0.9464
A_3     C     0.2996     0.4006     0.1738
A_3     C     0.8913     0.5329     0.0854
A_3     C     0.4204     0.8531     0.9494
A_3     C     0.9874     0.5285     0.4093
A_3     C     0.6226     0.578     0.2202
A_3     C     0.9263     0.0892     0.2235
A_3     C     0.5815     0.1694     0.3729
A_3     C     0.3022     0.7417     0.1059
A_3     C     0.0472     0.7724     0.6497
A_3     C     0.4685     0.8242     0.6468
A_3     C     0.4948     0.1903     0.0847
A_3     C     0.7044     0.6664     0.572
A_3     C     0.2136     0.8186     0.1248
A_3     C     0.1808     0.8857     0.2274
