MAT-48

loop_
_symmetry_equiv_pos_as_xyz
  x,y,z
_cell_length_a          26.8722
_cell_length_b          51.47
_cell_length_c          13.4989
_cell_angle_alpha       90.0000
_cell_angle_beta        90.0000
_cell_angle_gamma       90.0000
loop_
_atom_site_label
_atom_site_type_symbol
_atom_site_fract_x
_atom_site_fract_y
_atom_site_fract_z
A_3     C     0.973     0.924     0.4812
A_3     C     0.2075     0.6144     0.317
A_2     C     0.5136     0.1559     0.7612
A_3     C     0.7205     0.5712     0.0408
A_3     C     0.6034     0.4556     0.0499
A_0     C     0.8998     0.0501     0.4025
A_1     C     0.2621     0.0207     0.0806
A_0     C     0.8233     0.0434     0.548
A_2     C     0.4655     0.9303     0.5578
A_3     C     0.0366     0.1732     0.2445
A_3     C     0.5903     0.8845     0.1869
A_1     C     0.3386     0.4474     0.9094
A_3     C     0.1589     0.9585     0.393
A_1     C     0.1669     0.4105     0.8543
A_0     C     0.8681     0.3965     0.5129
A_3     C     0.3042     0.5933     0.9981
A_0     C     0.4258     0.6637     0.8491
A_1     C     0.567     0.4382     0.4408
A_0     C     0.4327     0.7697     0.3927
A_2     C     0.1434     0.4485     0.5518
A_2     C     0.28     0.71     0.5202
A_1     C     0.3329     0.4701     0.6353
A_1     C     0.2133     0.1679     0.142
A_3     C     0.708     0.4535     0.9932
A_3     C     0.7467     0.5596     0.1281
A_1     C     0.9654     0.4612     0.3371
A_3     C     0.6781     0.5742     0.8715
A_2     C     0.4067     0.4293     0.8313
A_2     C     0.7651     0.9137     0.4513
A_1     C     0.4408     0.8796     0.6873
A_0     C     0.2999     0.7496     0.8134
A_2     C     0.0084     0.4491     0.4507
A_3     C     0.2368     0.5564     0.4853
A_0     C     0.0235     0.4894     0.9566
A_1     C     0.5934     0.6442     0.1194
A_2     C     0.082     0.7251     0.9781
A_0     C     0.854     0.2992     0.3896
A_3     C     0.0466     0.3054     0.309
A_3     C     0.3637     0.6983     0.7547
A_3     C     0.8557     0.083     0.3362
A_0     C     0.9567     0.9804     0.123
A_1     C     0.2087     0.0646     0.73
A_3     C     0.9094     0.197     0.4864
A_0     C     0.2098     0.4811     0.2193
A_3     C     0.2728     0.4383     0.007
A_3     C     0.8095     0.6738     0.2487
A_2     C     0.0691     0.1265     0.279
A_1     C     0.2585     0.5749     0.5517
A_1     C     0.6698     0.8622     0.6393
A_0     C     0.488     0.4752     0.628
A_0     C     0.8844     0.2402     0.4206
A_1     C     0.333     0.1654     0.7509
A_3     C     0.7722     0.595     0.4271
A_3     C     0.9918     0.5781     0.7482
A_0     C     0.9757     0.8306     0.885
A_3     C     0.5041     0.6836     0.3644
A_1     C     0.9886     0.3293     0.215
A_1     C     0.4954     0.2933     0.4793
A_3     C     0.7759     0.8719     0.7312
A_1     C     0.1777     0.9585     0.9353
A_3     C     0.3036     0.7668     0.1277
A_2     C     0.8573     0.0516     0.5434
A_0     C     0.6112     0.9858     0.4789
A_1     C     0.5923     0.9005     0.0717
A_3     C     0.5512     0.9476     0.2255
A_3     C     0.4691     0.5768     0.4616
A_1     C     0.7286     0.4055     0.3113
A_3     C     0.8413     0.2378     0.236
A_3     C     0.926     0.2986     0.3095
A_0     C     0.3996     0.0365     0.181
A_0     C     0.4539     0.901     0.6635
A_1     C     0.3749     0.2807     0.9006
A_0     C     0.3205     0.027     0.5729
A_3     C     0.5102     0.6197     0.1686
A_2     C     0.7983     0.6768     0.0829
A_0     C     0.4383     0.7375     0.4074
A_1     C     0.0124     0.4179     0.2202
A_0     C     0.5861     0.2793     0.5525
A_3     C     0.1145     0.3215     0.7971
A_1     C     0.4261     0.2269     0.6826
A_2     C     0.4878     0.9266     0.6791
A_1     C     0.9564     0.361     0.0864
A_1     C     0.0985     0.7304     0.0813
A_3     C     0.9216     0.9133     0.0166
A_0     C     0.5628     0.744     0.903
A_2     C     0.8149     0.2903     0.0679
A_1     C     0.8798     0.2621     0.14
A_2     C     0.3536     0.5208     0.1494
A_3     C     0.8211     0.582     0.3546
A_0     C     0.092     0.6812     0.4529
A_1     C     0.2941     0.4979     0.0922
A_3     C     0.2919     0.391     0.9266
A_0     C     0.0061     0.644     0.3113
A_3     C     0.5337     0.1947     0.7821
A_2     C     0.8931     0.835     0.5718
A_1     C     0.2442     0.4337     0.6444
A_0     C     0.5617     0.3843     0.5394
A_1     C     0.8117     0.8582     0.0957
A_1     C     0.5511     0.6521     0.5249
A_0     C     0.9215     0.5562     0.0782
A_2     C     0.1229     0.554     0.4092
A_0     C     0.1608     0.1875     0.6821
A_3     C     0.563     0.8156     0.6319
A_1     C     0.7396     0.1019     0.4622
A_2     C     0.6573     0.9612     0.7085
A_2     C     0.0659     0.901     0.1167
A_1     C     0.1473     0.0279     0.2651
A_3     C     0.6716     0.6121     0.8915
A_3     C     0.2402     0.7835     0.4922
A_0     C     0.2595     0.1198     0.3741
A_0     C     0.8909     0.3031     0.0872
A_1     C     0.9443     0.2363     0.1208
A_0     C     0.7374     0.233     0.9419
A_2     C     0.6894     0.3067     0.7412
A_2     C     0.5915     0.7654     0.2152
A_3     C     0.3422     0.8063     0.9694
A_2     C     0.8402     0.0465     0.4167
A_3     C     0.8133     0.1645     0.9005
A_0     C     0.7824     0.5573     0.3189
A_0     C     0.6869     0.74     0.5571
A_0     C     0.7804     0.3003     0.9253
A_1     C     0.5448     0.9396     0.8779
A_3     C     0.6598     0.9488     0.6526
A_0     C     0.0236     0.2128     0.096
A_0     C     0.934     0.9332     0.9918
A_0     C     0.0267     0.5446     0.1682
A_0     C     0.0572     0.5929     0.4002
A_0     C     0.1878     0.6561     0.7889
A_1     C     0.9143     0.208     0.9224
A_0     C     0.2641     0.833     0.4152
A_3     C     0.8557     0.796     0.6106
A_1     C     0.7346     0.0325     0.5429
A_2     C     0.7208     0.6338     0.7663
A_2     C     0.3274     0.0516     0.3462
A_2     C     0.4007     0.4931     0.591
A_1     C     0.8314     0.7885     0.0604
A_2     C     0.2022     0.345     0.8321
A_1     C     0.7294     0.4402     0.4498
A_3     C     0.204     0.0303     0.8952
A_0     C     0.3103     0.0708     0.6758
A_1     C     0.0092     0.374     0.9913
A_3     C     0.3563     0.4972     0.1932
A_3     C     0.2778     0.7444     0.3593
A_0     C     0.2803     0.8972     0.7258
A_2     C     0.8009     0.9152     0.9401
A_1     C     0.5612     0.7854     0.799
A_2     C     0.2777     0.6672     0.4929
A_1     C     0.4738     0.7728     0.7431
A_3     C     0.057     0.4025     0.5632
A_1     C     0.3039     0.4047     0.5719
A_0     C     0.3319     0.2852     0.7841
A_3     C     0.6451     0.261     0.2789
A_1     C     0.9127     0.1445     0.1775
A_0     C     0.4503     0.9052     0.238
A_1     C     0.554     0.3759     0.7025
A_1     C     0.9178     0.3595     0.186
A_0     C     0.365     0.709     0.028
A_3     C     0.7896     0.7011     0.2118
A_2     C     0.8289     0.1667     0.2858
A_0     C     0.1447     0.3199     0.6173
A_0     C     0.4933     0.7821     0.6445
A_3     C     0.661     0.9709     0.4812
A_3     C     0.7623     0.7667     0.3331
A_1     C     0.791     0.4214     0.9695
A_3     C     0.7297     0.6675     0.2187
A_0     C     0.455     0.4142     0.3513
A_3     C     0.5166     0.4094     0.4194
A_1     C     0.4345     0.2078     0.9961
A_3     C     0.933     0.112     0.6055
A_3     C     0.1725     0.5775     0.317
A_2     C     0.4507     0.3275     0.8972
A_3     C     0.3592     0.2282     0.9659
A_1     C     0.4943     0.5175     0.3425
A_3     C     0.2549     0.9915     0.4653
A_3     C     0.3765     0.7808     0.5176
A_2     C     0.174     0.042     0.9993
A_1     C     0.7507     0.5902     0.4226
A_1     C     0.0643     0.149     0.1256
A_2     C     0.5293     0.8345     0.6568
A_2     C     0.5111     0.4903     0.6656
A_1     C     0.3829     0.0011     0.8173
A_1     C     0.9901     0.6138     0.8791
A_0     C     0.0237     0.0265     0.6228
A_1     C     0.4822     0.4883     0.3511
A_2     C     0.8609     0.6761     0.7074
A_3     C     0.9471     0.2247     0.3007
A_3     C     0.8663     0.0136     0.3775
A_3     C     0.9673     0.8705     0.1325
A_1     C     0.453     0.7581     0.2368
A_0     C     0.6035     0.9214     0.973
A_2     C     0.6679     0.1865     0.7298
A_0     C     0.5151     0.616     0.2423
A_0     C     0.0119     0.9793     0.3221
A_3     C     0.1129     0.2831     0.8599
A_1     C     0.7097     0.7914     0.9554
A_0     C     0.6366     0.5918     0.2035
A_2     C     0.9157     0.1924     0.1173
A_0     C     0.793     0.7377     0.6596
A_2     C     0.2571     0.1944     0.1573
A_2     C     0.3615     0.7218     0.3213
A_2     C     0.4817     0.2054     0.1821
A_3     C     0.7322     0.0355     0.8972
A_0     C     0.6117     0.3843     0.1939
A_1     C     0.5919     0.4829     0.4437
A_1     C     0.2309     0.1618     0.3419
A_0     C     0.9923     0.676     0.3798
A_2     C     0.45     0.0871     0.9368
A_3     C     0.2887     0.6706     0.8301
A_1     C     0.3508     0.6237     0.0431
A_3     C     0.3816     0.774     0.1518
A_1     C     0.8255     0.1801     0.1881
A_3     C     0.1707     0.3602     0.8313
A_1     C     0.2921     0.8539     0.0552
A_1     C     0.7777     0.7209     0.8147
A_2     C     0.9604     0.308     0.2004
A_3     C     0.7008     0.3271     0.1713
A_3     C     0.6118     0.6962     0.6723
A_0     C     0.1063     0.377     0.9447
A_0     C     0.6917     0.5852     0.2587
A_0     C     0.5597     0.6682     0.6
A_0     C     0.408     0.2988     0.934
A_2     C     0.7509     0.6931     0.2202
A_3     C     0.4179     0.792     0.2713
A_0     C     0.7936     0.3276     0.2876
A_2     C     0.1907     0.319     0.3561
A_1     C     0.3594     0.0859     0.2992
A_3     C     0.9898     0.8911     0.7823
A_2     C     0.4456     0.5444     0.6135
A_0     C     0.3321     0.2232     0.8589
A_3     C     0.352     0.1818     0.4284
A_0     C     0.1466     0.5895     0.9313
A_0     C     0.0767     0.7006     0.9375
A_1     C     0.4936     0.9519     0.028
A_0     C     0.2585     0.4495     0.8947
A_3     C     0.1613     0.1124     0.6021
A_1     C     0.1154     0.5277     0.8338
A_1     C     0.9934     0.0842     0.5337
A_0     C     0.3538     0.7606     0.6524
A_0     C     0.8609     0.679     0.3142
A_2     C     0.213     0.6577     0.8003
A_3     C     0.3843     0.1926     0.2539
A_3     C     0.5276     0.5978     0.3518
A_1     C     0.1983     0.6865     0.255
A_0     C     0.4005     0.8524     0.5864
A_1     C     0.3561     0.2889     0.3628
A_1     C     0.2961     0.9182     0.8408
A_2     C     0.943     0.644     0.2919
A_2     C     0.0121     0.6282     0.2195
A_3     C     0.1069     0.5505     0.2628
A_1     C     0.8705     0.4189     0.9428
A_0     C     0.2054     0.6835     0.3174
A_0     C     0.0424     0.9952     0.4307
A_2     C     0.2489     0.868     0.1449
A_3     C     0.0751     0.7543     0.7706
A_1     C     0.6013     0.1293     0.5921
A_0     C     0.2936     0.1193     0.7636
A_3     C     0.477     0.3494     0.7036
A_1     C     0.9494     0.7537     0.1919
A_3     C     0.1749     0.8917     0.5327
A_2     C     0.8825     0.8974     0.7733
A_2     C     0.6853     0.477     0.2191
A_0     C     0.8102     0.9526     0.3185
A_1     C     0.4089     0.8802     0.1675
A_0     C     0.5223     0.4755     0.4085
A_0     C     0.3714     0.105     0.7245
A_3     C     0.829     0.9022     0.3594
A_0     C     0.0151     0.3402     0.76
A_2     C     0.1119     0.1098     0.4174
A_1     C     0.1514     0.2401     0.8842
A_2     C     0.2333     0.1464     0.3804
A_3     C     0.3871     0.8714     0.1612
A_2     C     0.9884     0.7335     0.6274
A_3     C     0.2104     0.5557     0.7905
A_3     C     0.5181     0.4657     0.8743
A_0     C     0.2477     0.3683     0.5033
A_3     C     0.7603     0.3186     0.1383
A_3     C     0.4013     0.7282     0.1338
A_0     C     0.563     0.9738     0.7771
A_3     C     0.0843     0.9773     0.303
A_1     C     0.0601     0.9178     0.9256
A_1     C     0.4806     0.4838     0.228
A_2     C     0.3961     0.716     0.5616
A_1     C     0.6394     0.8602     0.6223
A_3     C     0.1304     0.1607     0.6318
A_3     C     0.2121     0.99     0.6243
A_0     C     0.6132     0.1032     0.9312
A_0     C     0.9473     0.1224     0.0313
A_0     C     0.9347     0.2199     0.9675
A_2     C     0.7975     0.101     0.9799
A_1     C     0.7044     0.3831     0.5795
A_3     C     0.5873     0.3257     0.8142
A_3     C     0.8441     0.7495     0.9095
A_0     C     0.2957     0.5958     0.2454
A_1     C     0.4612     0.3082     0.5486
A_1     C     0.0757     0.6982     0.5537
A_0     C     0.3029     0.2752     0.1601
A_2     C     0.3939     0.1533     0.3416
A_3     C     0.033     0.4484     0.3757
A_0     C     0.2573     0.5931     0.0008
A_2     C     0.626     0.742     0.6696
A_2     C     0.0422     0.3713     0.3274
A_2     C     0.7431     0.2644     0.5525
A_0     C     0.6143     0.8589     0.2827
A_2     C     0.0603     0.7947     0.7531
