MAT-58

loop_
_symmetry_equiv_pos_as_xyz
  x,y,z
_cell_length_a          30.9602
_cell_length_b          20.4534
_cell_length_c          42.9645
_cell_angle_alpha       90.0000
_cell_angle_beta        90.0000
_cell_angle_gamma       90.0000
loop_
_atom_site_label
_atom_site_type_symbol
_atom_site_fract_x
_atom_site_fract_y
_atom_site_fract_z
A_3     C     0.3488     0.1472     0.092
A_0     C     0.5778     0.2346     0.5394
A_3     C     0.3944     0.3447     0.8091
A_0     C     0.1467     0.7316     0.8475
A_1     C     0.0659     0.0906     0.08
A_1     C     0.9096     0.0489     0.6331
A_3     C     0.3963     0.5132     0.4169
A_3     C     0.1868     0.8813     0.347
A_3     C     0.7722     0.0328     0.0647
A_3     C     0.3434     0.3048     0.6806
A_3     C     0.9566     0.5033     0.6055
A_3     C     0.2281     0.1921     0.5426
A_3     C     0.5795     0.7574     0.9996
A_3     C     0.3849     0.1572     0.9094
A_3     C     0.0661     0.0951     0.1874
A_3     C     0.3243     0.9329     0.6583
A_3     C     0.0686     0.9122     0.4812
A_3     C     0.5585     0.8186     0.5037
A_3     C     0.0876     0.3549     0.4307
A_3     C     0.2638     0.667     0.525
A_3     C     0.808     0.2635     0.1641
A_3     C     0.7472     0.3867     0.3749
A_3     C     0.8803     0.878     0.1585
A_3     C     0.9214     0.629     0.7081
A_3     C     0.5853     0.0655     0.2618
A_3     C     0.973     0.3556     0.4246
A_3     C     0.3611     0.7341     0.3398
A_3     C     0.6458     0.093     0.844
A_3     C     0.93     0.4235     0.2657
A_3     C     0.1455     0.5932     0.6626
A_3     C     0.407     0.0338     0.1174
A_3     C     0.3705     0.1385     0.4274
A_3     C     0.4376     0.0357     0.1985
A_3     C     0.3599     0.3852     0.8706
A_3     C     0.4023     0.2075     0.7702
A_3     C     0.7408     0.0998     0.3988
A_3     C     0.8245     0.3061     0.0713
A_3     C     0.1018     0.0038     0.6875
A_3     C     0.5743     0.67     0.4332
A_3     C     0.9705     0.5757     0.467
A_3     C     0.6762     0.8218     0.7263
A_3     C     0.4473     0.1385     0.8655
A_3     C     0.2619     0.652     0.5154
A_3     C     0.6748     0.3957     0.7642
A_3     C     0.5093     0.9522     0.1769
A_3     C     0.3283     0.6827     0.1925
A_3     C     0.6949     0.0627     0.3127
A_3     C     0.696     0.5818     0.7507
A_3     C     0.5986     0.4587     0.3901
A_3     C     0.5105     0.3504     0.994
A_3     C     0.3512     0.2431     0.0189
A_3     C     0.9179     0.2087     0.1911
A_3     C     0.5232     0.5108     0.4449
A_3     C     0.7518     0.6861     0.5547
A_3     C     0.7582     0.6333     0.9923
A_3     C     0.6072     0.3099     0.2551
A_3     C     0.2484     0.9466     0.8687
A_3     C     0.5291     0.591     0.3281
A_3     C     0.0378     0.2057     0.1067
A_3     C     0.331     0.3182     0.1209
A_3     C     0.5616     0.5143     0.394
A_3     C     0.6525     0.1506     0.5632
A_3     C     0.702     0.2496     0.8479
A_3     C     0.773     0.2911     0.9082
A_3     C     0.9686     0.5304     0.8582
A_3     C     0.2317     0.5478     0.3815
A_3     C     0.5906     0.7833     0.1014
A_3     C     0.1172     0.7064     0.255
A_3     C     0.2882     0.2349     0.6632
A_3     C     0.2888     0.0476     0.8841
A_3     C     0.5013     0.0249     0.7082
A_3     C     0.6507     0.2088     0.2993
A_3     C     0.7163     0.4001     0.9098
A_3     C     0.1019     0.8944     0.3231
A_3     C     0.6941     0.1301     0.9816
A_3     C     0.1622     0.2734     0.4943
A_3     C     0.4516     0.5388     0.4677
A_3     C     0.947     0.9305     0.8168
A_3     C     0.2946     0.9682     0.8487
A_3     C     0.5322     0.0546     0.9602
A_3     C     0.6814     0.4423     0.0969
A_3     C     0.869     0.2852     0.0051
A_3     C     0.9399     0.6365     0.6885
A_3     C     0.8277     0.8938     0.2324
A_3     C     0.5404     0.1805     0.7066
A_3     C     0.2329     0.6749     0.2447
A_3     C     0.9762     0.6388     0.1779
A_3     C     0.0629     0.7165     0.8958
A_3     C     0.0927     0.3154     0.7449
A_3     C     0.5645     0.6488     0.0973
A_3     C     0.4742     0.3678     0.675
A_3     C     0.3884     0.5645     0.9393
A_3     C     0.7916     0.231     0.7503
A_3     C     0.2194     0.1437     0.3326
A_3     C     0.4425     0.5466     0.8446
A_3     C     0.498     0.5783     0.5654
A_3     C     0.199     0.966     0.6751
A_3     C     0.674     0.6019     0.2602
A_3     C     0.593     0.0885     0.4838
A_3     C     0.0205     0.3597     0.9529
A_3     C     0.082     0.6523     0.1297
A_3     C     0.1402     0.2405     0.253
A_3     C     0.1775     0.034     0.746
A_3     C     0.3767     0.2517     0.7531
A_3     C     0.9007     0.4797     0.6945
A_3     C     0.9195     0.1829     0.5465
A_3     C     0.4703     0.0546     0.509
A_3     C     0.0836     0.5782     0.8294
A_3     C     0.2259     0.5658     0.7849
A_3     C     0.6466     0.0318     0.5748
A_3     C     0.6213     0.055     0.7962
A_3     C     0.3797     0.5062     0.4905
A_3     C     0.4181     0.434     0.6201
A_3     C     0.311     0.8798     0.1281
A_3     C     0.6637     0.5493     0.5109
A_3     C     0.4157     0.7429     0.1935
A_3     C     0.5889     0.7686     0.4957
A_3     C     0.5016     0.6168     0.5823
A_3     C     0.2058     0.4852     0.3832
A_3     C     0.2508     0.5643     0.1523
A_3     C     0.1873     0.251     0.7015
A_3     C     0.0653     0.0665     0.5155
A_3     C     0.8237     0.0579     0.7897
A_3     C     0.975     0.4894     0.4114
A_3     C     0.3349     0.5652     0.7492
A_3     C     0.71     0.586     0.596
A_3     C     0.6908     0.4909     0.6332
A_3     C     0.9778     0.4477     0.0235
A_3     C     0.2651     0.2975     0.8078
A_3     C     0.7686     0.5961     0.2278
A_3     C     0.6341     0.0436     0.8372
A_3     C     0.6237     0.424     0.351
A_3     C     0.1924     0.3914     0.4096
A_3     C     0.8631     0.2864     0.0494
A_3     C     0.9374     0.8303     0.7288
A_3     C     0.4386     0.0831     0.1222
A_3     C     0.0737     0.012     0.0404
A_3     C     0.324     0.8682     0.9844
A_3     C     0.3891     0.3391     0.7639
A_3     C     0.2444     0.0209     0.8074
A_3     C     0.6036     0.8767     0.0982
A_3     C     0.8552     0.8675     0.2574
A_3     C     0.5141     0.4111     0.4883
A_3     C     0.9449     0.173     0.064
A_3     C     0.4385     0.5132     0.5722
A_3     C     0.3467     0.8424     0.6715
A_3     C     0.8186     0.323     0.65
A_3     C     0.9034     0.7526     0.8687
A_3     C     0.1751     0.3117     0.2613
A_3     C     0.2459     0.8917     0.181
A_3     C     0.6644     0.8783     0.5468
A_3     C     0.2477     0.1257     0.2097
A_3     C     0.472     0.1069     0.3623
A_3     C     0.0605     0.2419     0.8208
A_3     C     0.4173     0.9536     0.3408
A_3     C     0.6523     0.1463     0.4486
A_3     C     0.4028     0.844     0.2617
A_3     C     0.5628     0.7832     0.0409
A_3     C     0.9719     0.2395     0.037
A_3     C     0.6     0.1451     0.4033
A_3     C     0.5389     0.2381     0.0712
A_3     C     0.8489     0.7112     0.2571
A_3     C     0.4581     0.0521     0.0088
A_3     C     0.4574     0.456     0.3475
A_3     C     0.9388     0.5517     0.2693
A_3     C     0.0145     0.2703     0.8559
A_3     C     0.1885     0.0523     0.2671
A_3     C     0.0039     0.4885     0.0698
A_3     C     0.287     0.0316     0.4753
A_3     C     0.7466     0.0939     0.9669
A_3     C     0.8308     0.0099     0.112
A_3     C     0.8336     0.6812     0.2287
A_3     C     0.7996     0.5394     0.231
A_3     C     0.4672     0.9916     0.4393
A_3     C     0.8764     0.2257     0.6995
A_3     C     0.9818     0.9903     0.9392
