MAT-74

loop_
_symmetry_equiv_pos_as_xyz
  x,y,z
_cell_length_a          37.41
_cell_length_b          32.9619
_cell_length_c          50.1243
_cell_angle_alpha       90.0000
_cell_angle_beta        90.0000
_cell_angle_gamma       90.0000
loop_
_atom_site_label
_atom_site_type_symbol
_atom_site_fract_x
_atom_site_fract_y
_atom_site_fract_z
A_1     C     0.7116     0.019     0.343
A_0     C     0.9522     0.5334     0.3694
A_0     C     0.2598     0.0524     0.0942
A_2     C     0.6195     0.5546     0.3186
A_1     C     0.8501     0.3378     0.9054
A_1     C     0.0834     0.1126     0.1943
A_3     C     0.3891     0.3042     0.669
A_3     C     0.9147     0.3399     0.3345
A_0     C     0.4798     0.7407     0.3144
A_3     C     0.7071     0.3569     0.8794
A_1     C     0.337     0.762     0.6512
A_2     C     0.6695     0.9958     0.3905
A_1     C     0.6224     0.342     0.1993
A_0     C     0.897     0.1831     0.5355
A_3     C     0.4002     0.2764     0.0761
A_0     C     0.4914     0.8989     0.8071
A_2     C     0.2611     0.1367     0.3439
A_1     C     0.9249     0.9108     0.0989
A_2     C     0.417     0.5008     0.8835
A_0     C     0.9771     0.3994     0.2008
A_3     C     0.3558     0.509     0.3348
A_2     C     0.4986     0.5991     0.5597
A_2     C     0.2115     0.6208     0.6613
A_0     C     0.6148     0.3513     0.2715
A_3     C     0.382     0.6984     0.6464
A_0     C     0.3271     0.9386     0.8958
A_0     C     0.6822     0.1364     0.3228
A_2     C     0.3701     0.8841     0.1021
A_0     C     0.7895     0.6912     0.6234
A_0     C     0.9364     0.1841     0.3892
A_0     C     0.0168     0.3712     0.9247
A_3     C     0.3682     0.4334     0.6966
A_2     C     0.6469     0.063     0.9482
A_1     C     0.0244     0.2532     0.4083
A_0     C     0.4605     0.2117     0.4628
A_2     C     0.0966     0.366     0.9412
A_0     C     0.0462     0.4085     0.1243
A_1     C     0.0794     0.4519     0.7851
A_1     C     0.0235     0.8516     0.2249
A_0     C     0.9432     0.1799     0.2236
A_1     C     0.6174     0.4254     0.859
A_1     C     0.8311     0.1628     0.4446
A_2     C     0.3807     0.0374     0.3011
A_3     C     0.6497     0.9098     0.8882
A_1     C     0.8438     0.4148     0.3147
A_1     C     0.3685     0.8279     0.2259
A_3     C     0.5587     0.8028     0.0483
A_2     C     0.9321     0.7176     0.1621
A_0     C     0.8148     0.294     0.6301
A_2     C     0.8624     0.0576     0.4303
A_3     C     0.159     0.3358     0.7373
A_0     C     0.7211     0.9515     0.2148
A_2     C     0.0894     0.1491     0.0318
A_1     C     0.4798     0.1195     0.79
A_3     C     0.6278     0.0252     0.5261
A_0     C     0.3043     0.1361     0.3951
A_3     C     0.8184     0.4289     0.8026
A_1     C     0.2916     0.5035     0.8735
A_2     C     0.8988     0.1219     0.3831
A_2     C     0.0211     0.1223     0.9332
A_2     C     0.3608     0.8846     0.7131
A_1     C     0.0703     0.9374     0.1071
A_1     C     0.8847     0.997     0.2346
A_3     C     0.0655     0.7265     0.63
A_1     C     0.911     0.9859     0.9166
A_1     C     0.479     0.8217     0.0754
A_1     C     0.2791     0.2054     0.813
A_1     C     0.6042     0.8051     0.9429
A_2     C     0.9772     0.1273     0.3866
A_0     C     0.81     0.7936     0.0193
A_3     C     0.4332     0.1166     0.1167
A_0     C     0.8896     0.0918     0.6485
A_2     C     0.2571     0.5355     0.0054
A_3     C     0.018     0.5758     0.7902
A_0     C     0.2566     0.0283     0.9158
A_1     C     0.5112     0.4148     0.8373
A_3     C     0.6541     0.4596     0.2538
A_0     C     0.5132     0.3686     0.5269
A_3     C     0.2416     0.2116     0.3721
A_0     C     0.7455     0.3871     0.857
A_3     C     0.3683     0.6303     0.9769
A_3     C     0.7053     0.9622     0.9422
A_0     C     0.9144     0.2404     0.2216
A_1     C     0.348     0.0273     0.4627
A_2     C     0.1737     0.9784     0.4491
A_2     C     0.3132     0.1092     0.8876
A_3     C     0.9587     0.5159     0.8397
A_3     C     0.8389     0.5227     0.4255
A_3     C     0.3504     0.8257     0.5108
A_0     C     0.515     0.4649     0.5548
A_3     C     0.7079     0.7469     0.7377
A_0     C     0.4088     0.3632     0.4623
A_3     C     0.3673     0.6687     0.6187
A_2     C     0.5422     0.3404     0.0045
A_0     C     0.7037     0.3039     0.5935
A_1     C     0.8881     0.6786     0.0286
A_2     C     0.2166     0.6537     0.6043
A_2     C     0.0391     0.2937     0.349
A_2     C     0.671     0.8225     0.0208
A_0     C     0.822     0.6655     0.3671
A_2     C     0.4095     0.1414     0.1007
A_0     C     0.5448     0.8214     0.9244
A_3     C     0.1234     0.4357     0.0621
A_3     C     0.0913     0.511     0.8639
A_3     C     0.4748     0.0433     0.4721
A_1     C     0.5363     0.1795     0.3396
A_3     C     0.8386     0.9833     0.5631
A_2     C     0.0806     0.6868     0.0353
A_3     C     0.0859     0.729     0.4754
A_3     C     0.7198     0.6332     0.7763
A_2     C     0.5573     0.2375     0.3982
A_3     C     0.3645     0.2376     0.4265
A_1     C     0.822     0.2514     0.3709
A_3     C     0.3213     0.4391     0.8285
A_2     C     0.9614     0.5557     0.5292
A_1     C     0.1045     0.6296     0.4693
A_0     C     0.2711     0.8553     0.2921
A_1     C     0.2031     0.6125     0.019
A_3     C     0.9294     0.704     0.0519
A_3     C     0.4141     0.963     0.2472
A_1     C     0.7815     0.549     0.4646
A_1     C     0.4337     0.2608     0.9853
A_3     C     0.7885     0.0833     0.1265
A_2     C     0.9008     0.422     0.7014
A_2     C     0.8648     0.6414     0.7469
A_2     C     0.5126     0.7008     0.4771
A_2     C     0.766     0.7464     0.7361
A_0     C     0.1221     0.3735     0.7441
A_3     C     0.6001     0.7287     0.0974
A_2     C     0.5487     0.294     0.1783
A_1     C     0.4492     0.9754     0.1925
A_1     C     0.5647     0.7496     0.0492
A_0     C     0.844     0.6761     0.5127
A_3     C     0.0125     0.0588     0.806
A_3     C     0.2613     0.4694     0.657
A_0     C     0.773     0.0229     0.6367
A_1     C     0.0421     0.5806     0.0212
A_0     C     0.0702     0.3575     0.9251
A_1     C     0.2405     0.7551     0.4686
A_1     C     0.6938     0.7013     0.4305
A_0     C     0.535     0.0601     0.0254
A_2     C     0.4619     0.4485     0.6521
A_3     C     0.5121     0.9715     0.4472
A_0     C     0.8939     0.9786     0.248
A_1     C     0.3668     0.2305     0.1835
A_1     C     0.4566     0.4837     0.3786
A_3     C     0.9482     0.3196     0.1464
A_2     C     0.4127     0.8396     0.5476
A_1     C     0.9459     0.4576     0.8668
A_1     C     0.6784     0.9469     0.5155
A_2     C     0.7669     0.4728     0.8957
A_0     C     0.6814     0.7519     0.5234
A_1     C     0.4551     0.077     0.7251
A_3     C     0.8579     0.0988     0.9473
A_2     C     0.7355     0.7526     0.0521
A_1     C     0.5565     0.8512     0.9573
A_2     C     0.3253     0.3599     0.2079
A_2     C     0.5138     0.3463     0.0081
A_2     C     0.3174     0.8196     0.7697
A_0     C     0.2706     0.7962     0.4688
A_1     C     0.7276     0.7823     0.1259
A_1     C     0.073     0.8763     0.2571
A_2     C     0.4555     0.5527     0.7983
A_3     C     0.9931     0.372     0.4152
A_3     C     0.2934     0.3692     0.5995
A_2     C     0.6801     0.9679     0.7357
A_3     C     0.6214     0.3996     0.1376
A_2     C     0.7788     0.5719     0.7796
A_2     C     0.7352     0.6289     0.159
A_0     C     0.4747     0.4592     0.4978
A_2     C     0.9614     0.4716     0.973
A_0     C     0.0856     0.6756     0.0388
A_0     C     0.8341     0.5418     0.3707
A_1     C     0.7645     0.6193     0.9341
A_1     C     0.3492     0.0611     0.7493
A_0     C     0.8128     0.8136     0.6536
A_1     C     0.4295     0.0813     0.4028
A_2     C     0.9752     0.9358     0.0254
A_3     C     0.2455     0.2175     0.9984
A_2     C     0.3225     0.4081     0.2831
A_2     C     0.9778     0.7418     0.1096
A_3     C     0.1534     0.3532     0.7093
A_2     C     0.3708     0.9517     0.4484
A_3     C     0.3465     0.4777     0.4191
A_3     C     0.4595     0.9206     0.1174
A_2     C     0.074     0.804     0.6501
A_3     C     0.1355     0.9512     0.9506
A_2     C     0.9051     0.5888     0.1348
A_0     C     0.4125     0.0044     0.1353
A_2     C     0.7334     0.0569     0.1456
A_2     C     0.5668     0.2006     0.9617
A_2     C     0.1919     0.9929     0.6471
A_1     C     0.2393     0.769     0.1528
A_1     C     0.2665     0.5581     0.6214
A_2     C     0.8086     0.0764     0.6548
A_1     C     0.962     0.0274     0.281
A_2     C     0.2698     0.6752     0.5606
A_2     C     0.6414     0.3706     0.9584
A_3     C     0.2059     0.929     0.1223
A_3     C     0.8679     0.9303     0.3629
A_0     C     0.899     0.1078     0.617
A_2     C     0.9372     0.5227     0.2898
A_3     C     0.9872     0.9411     0.6623
A_1     C     0.424     0.7682     0.6221
A_0     C     0.4729     0.5106     0.138
A_1     C     0.3983     0.2382     0.4409
A_3     C     0.8615     0.9163     0.3439
A_2     C     0.9305     0.5986     0.2075
A_3     C     0.8089     0.1131     0.8789
A_3     C     0.739     0.6995     0.8739
A_2     C     0.1241     0.4662     0.8708
A_2     C     0.9879     0.7453     0.6418
A_0     C     0.8485     0.6411     0.5042
A_3     C     0.4375     0.3747     0.4581
A_0     C     0.674     0.1563     0.8583
A_1     C     0.392     0.3107     0.5003
A_0     C     0.3298     0.1366     0.2033
A_2     C     0.1832     0.8851     0.9947
A_3     C     0.396     0.6229     0.7602
A_1     C     0.1252     0.9416     0.2699
A_1     C     0.5654     0.4201     0.6489
A_1     C     0.5185     0.5846     0.2447
A_1     C     0.691     0.7767     0.8215
A_0     C     0.6652     0.8754     0.4233
A_2     C     0.5305     0.0369     0.262
A_1     C     0.3598     0.439     0.3619
A_0     C     0.976     0.7616     0.6278
A_0     C     0.5378     0.7229     0.0745
A_2     C     0.9829     0.2265     0.1477
A_2     C     0.2193     0.2305     0.4459
A_3     C     0.8127     0.9442     0.2841
A_3     C     0.1718     0.8636     0.9398
A_1     C     0.4419     0.3714     0.4423
A_0     C     0.6711     0.4145     0.5629
A_3     C     0.4698     0.5607     0.7778
A_2     C     0.056     0.364     0.2006
A_0     C     0.5773     0.7369     0.0817
A_3     C     0.2518     0.7495     0.0866
A_0     C     0.5802     0.5236     0.5871
A_2     C     0.5227     0.0395     0.675
A_2     C     0.6657     0.4207     0.5904
A_3     C     0.6829     0.9486     0.4386
A_0     C     0.8244     0.7203     0.5194
A_3     C     0.413     0.0708     0.4982
A_0     C     0.8927     0.1295     0.2844
A_1     C     0.2351     0.2221     0.2105
A_3     C     0.5265     0.4802     0.8989
A_0     C     0.6942     0.2802     0.0579
A_0     C     0.3841     0.7371     0.5694
A_1     C     0.1539     0.5944     0.9686
A_0     C     0.623     0.0714     0.1903
A_0     C     0.9012     0.6048     0.6332
A_1     C     0.5152     0.8457     0.8726
A_3     C     0.4236     0.6845     0.5693
A_3     C     0.7403     0.7047     0.774
A_1     C     0.3047     0.953     0.6784
A_2     C     0.6867     0.5472     0.2395
A_2     C     0.938     0.7056     0.5466
A_0     C     0.7835     0.474     0.0446
A_1     C     0.8033     0.3062     0.4114
A_2     C     0.5395     0.3604     0.2359
A_2     C     0.7678     0.8806     0.9025
A_2     C     0.3411     0.7823     0.3066
A_0     C     0.0935     0.4491     0.5249
A_2     C     0.9278     0.36     0.4408
A_2     C     0.8072     0.5166     0.73
A_2     C     0.998     0.7649     0.5547
A_1     C     0.1656     0.0702     0.6074
A_1     C     0.226     0.2382     0.391
A_1     C     0.9664     0.312     0.4736
A_3     C     0.3414     0.8439     0.6516
A_2     C     0.7301     0.3749     0.7347
A_1     C     0.7203     0.1339     0.5185
A_3     C     0.4714     0.7772     0.9226
A_2     C     0.0482     0.2045     0.6525
A_1     C     0.6755     0.1159     0.523
A_3     C     0.1433     0.7668     0.2598
A_3     C     0.8386     0.0578     0.3815
A_0     C     0.0396     0.0072     0.4153
A_1     C     0.6582     0.9995     0.3541
A_0     C     0.0143     0.3769     0.0384
A_0     C     0.0875     0.086     0.3628
A_3     C     0.8762     0.7789     0.4979
A_2     C     0.1618     0.7318     0.1395
A_1     C     0.4928     0.3237     0.4529
A_1     C     0.0295     0.3583     0.2129
A_0     C     0.6667     0.8598     0.9281
A_2     C     0.5908     0.3041     0.0343
A_0     C     0.5753     0.4737     0.3254
A_1     C     0.3689     0.8096     0.6914
A_0     C     0.5979     0.8874     0.5587
A_2     C     0.5988     0.3421     0.3647
A_2     C     0.7882     0.8695     0.0353
A_3     C     0.559     0.9864     0.5907
A_1     C     0.3392     0.641     0.7298
A_0     C     0.2443     0.4667     0.912
A_1     C     0.8597     0.1997     0.9795
A_2     C     0.9915     0.6482     0.5532
A_2     C     0.6834     0.7934     0.6553
A_3     C     0.1608     0.3254     0.5129
A_1     C     0.1339     0.3379     0.4604
A_2     C     0.9076     0.4725     0.5318
A_0     C     0.66     0.7364     0.8322
A_0     C     0.0281     0.6908     0.2623
A_3     C     0.8828     0.4474     0.6475
A_1     C     0.5276     0.9816     0.4943
A_3     C     0.0463     0.5528     0.9017
A_0     C     0.8009     0.3897     0.6005
A_1     C     0.1583     0.2519     0.7822
A_1     C     0.2509     0.8219     0.096
A_0     C     0.6234     0.9741     0.3877
A_3     C     0.3098     0.4595     0.1725
A_0     C     0.4533     0.0665     0.9074
A_0     C     0.3852     0.3619     0.3521
A_3     C     0.3914     0.0926     0.8729
A_2     C     0.9116     0.2246     0.178
A_0     C     0.3155     0.3554     0.6744
A_1     C     0.7174     0.5385     0.5823
A_3     C     0.7714     0.8864     0.6331
A_2     C     0.7782     0.2417     0.6568
A_2     C     0.0158     0.5552     0.5147
A_1     C     0.2076     0.0871     0.5251
A_0     C     0.6508     0.3708     0.4005
A_1     C     0.6554     0.3357     0.6634
A_1     C     0.7844     0.5028     0.4111
A_2     C     0.5969     0.7176     0.1849
A_0     C     0.3591     0.1286     0.2893
A_3     C     0.1955     0.1155     0.8967
A_3     C     0.1184     0.6866     0.7375
A_2     C     0.424     0.4635     0.3367
A_1     C     0.4836     0.194     0.829
A_1     C     0.2418     0.9642     0.8477
A_0     C     0.3739     0.1316     0.9377
A_0     C     0.3338     0.3359     0.4827
A_1     C     0.8744     0.4575     0.9815
A_1     C     0.5788     0.7894     0.0486
A_0     C     0.973     0.188     0.6218
A_3     C     0.716     0.3366     0.6831
A_3     C     0.2539     0.663     0.6401
A_2     C     0.3951     0.5414     0.982
A_0     C     0.2305     0.1592     0.9776
A_3     C     0.4838     0.8902     0.9146
A_0     C     0.9405     0.4702     0.5948
A_0     C     0.4215     0.9086     0.6825
A_1     C     0.6175     0.5192     0.5931
A_3     C     0.4053     0.6974     0.2043
A_0     C     0.7268     0.7672     0.7728
A_0     C     0.8428     0.7969     0.0535
A_3     C     0.8172     0.1065     0.4919
A_3     C     0.7188     0.9734     0.6591
A_0     C     0.1335     0.1769     0.4493
A_2     C     0.2465     0.1498     0.5864
A_2     C     0.0991     0.0094     0.723
A_3     C     0.4333     0.9274     0.8484
A_2     C     0.0059     0.0969     0.216
A_0     C     0.5388     0.3479     0.0868
A_3     C     0.703     0.2282     0.387
A_2     C     0.0234     0.5464     0.7877
A_0     C     0.7661     0.56     0.0596
A_3     C     0.1201     0.0825     0.6595
A_0     C     0.1897     0.6061     0.6962
A_2     C     0.3056     0.4302     0.9826
A_0     C     0.42     0.5315     0.7794
A_0     C     0.7862     0.3536     0.2431
A_1     C     0.7768     0.7858     0.7973
A_1     C     0.6174     0.7196     0.6043
A_1     C     0.3738     0.1705     0.0413
A_0     C     0.3382     0.7507     0.0566
A_3     C     0.6544     0.7753     0.1481
A_1     C     0.689     0.5199     0.7802
A_0     C     0.2235     0.556     0.7428
A_1     C     0.993     0.2366     0.4093
A_1     C     0.4141     0.9926     0.4961
A_1     C     0.8339     0.618     0.6089
A_3     C     0.7445     0.1214     0.2069
A_1     C     0.1573     0.2745     0.3786
A_2     C     0.1875     0.9468     0.3677
A_3     C     0.8806     0.9776     0.9605
A_0     C     0.2714     0.8527     0.3018
A_0     C     0.4496     0.4064     0.6422
A_2     C     0.7815     0.1578     0.5326
A_1     C     0.9846     0.9611     0.6562
A_1     C     0.4361     0.3313     0.8729
A_3     C     0.222     0.5571     0.2948
A_3     C     0.4043     0.7275     0.1651
A_0     C     0.9406     0.5941     0.8536
A_2     C     0.5424     0.6339     0.767
A_1     C     0.4858     0.8107     0.0329
A_2     C     0.6941     0.3831     0.1917
A_3     C     0.4059     0.836     0.9192
A_3     C     0.0044     0.8921     0.2018
A_3     C     0.5154     0.1167     0.3141
A_0     C     0.5707     0.3936     0.5257
A_0     C     0.2848     0.7066     0.4261
A_2     C     0.4474     0.2061     0.833
A_2     C     0.135     0.4993     0.9046
A_2     C     0.0365     0.8089     0.9197
A_0     C     0.7017     0.6346     0.8733
A_3     C     0.3507     0.7179     0.8252
A_0     C     0.4741     0.6853     0.8223
A_2     C     0.703     0.3718     0.9189
A_3     C     0.3723     0.317     0.197
A_0     C     0.2458     0.4937     0.9505
A_2     C     0.5571     0.8876     0.6993
A_0     C     0.7501     0.3058     0.4051
A_1     C     0.185     0.8362     0.4456
A_1     C     0.0906     0.5575     0.6021
A_0     C     0.4841     0.5481     0.8075
A_0     C     0.6933     0.2425     0.2455
A_0     C     0.9665     0.0525     0.1749
A_0     C     0.2297     0.4801     0.5891
A_3     C     0.5093     0.7875     0.5717
A_0     C     0.5185     0.7164     0.2309
A_2     C     0.0281     0.1969     0.2257
A_0     C     0.6682     0.3694     0.4331
A_3     C     0.2877     0.2977     0.7848
A_0     C     0.4339     0.8909     0.5214
A_0     C     0.9559     0.2439     0.2168
A_0     C     0.5198     0.9612     0.0353
A_2     C     0.8803     0.5053     0.2138
A_0     C     0.4426     0.7057     0.3709
A_2     C     0.3288     0.6488     0.2014
A_0     C     0.3646     0.4082     0.3072
A_3     C     0.1922     0.9374     0.6918
A_0     C     0.4917     0.6621     0.5322
A_0     C     0.9031     0.2383     0.6739
A_2     C     0.1201     0.6528     0.4702
A_0     C     0.3995     0.1269     0.3659
A_3     C     0.7202     0.3834     0.6214
A_1     C     0.3695     0.2638     0.3786
A_3     C     0.611     0.3286     0.3783
A_0     C     0.8758     0.1908     0.0337
A_1     C     0.6428     0.4759     0.2753
A_1     C     0.7631     0.1013     0.1042
A_1     C     0.1865     0.7411     0.3416
A_1     C     0.7153     0.8108     0.5281
A_1     C     0.8566     0.7858     0.7748
A_1     C     0.6104     0.4036     0.9965
A_1     C     0.8127     0.3434     0.5203
A_1     C     0.0181     0.1404     0.8356
A_1     C     0.493     0.9197     0.2596
A_1     C     0.7607     0.5446     0.8264
A_1     C     0.6397     0.556     0.3014
A_1     C     0.9455     0.1465     0.3643
A_1     C     0.2474     0.9146     0.9626
A_1     C     0.8615     0.3596     0.057
A_1     C     0.7172     0.5768     0.0093
A_1     C     0.8036     0.0753     0.3564
A_1     C     0.4108     0.2446     0.538
A_1     C     0.1347     0.7654     0.8491
A_1     C     0.4598     0.9954     0.4697
A_1     C     0.2444     0.311     0.3826
A_1     C     0.0329     0.357     0.8497
A_1     C     0.2869     0.1977     0.3213
A_1     C     0.3118     0.478     0.7155
A_1     C     0.8865     0.0295     0.6292
A_1     C     0.7493     0.7412     0.9586
A_1     C     0.0003     0.6105     0.7831
A_1     C     0.8448     0.5264     0.1361
A_1     C     0.6147     0.9975     0.3812
A_1     C     0.8281     0.2666     0.8714
A_1     C     0.1711     0.8015     0.2828
A_1     C     0.175     0.4516     0.4049
A_1     C     0.6259     0.9878     0.259
A_1     C     0.4076     0.9828     0.5082
A_1     C     0.5045     0.8301     0.1974
A_1     C     0.3592     0.5151     0.0781
A_1     C     0.1005     0.2106     0.1096
A_1     C     0.3068     0.6228     0.0806
A_1     C     0.1056     0.9073     0.1059
A_1     C     0.8514     0.6843     0.3985
A_1     C     0.1341     0.7819     0.3877
A_1     C     0.4564     0.12     0.1664
A_1     C     0.8407     0.2757     0.6431
A_1     C     0.6432     0.6445     0.3138
A_1     C     0.0326     0.722     0.9685
A_1     C     0.9282     0.1528     0.2685
A_1     C     0.5988     0.8216     0.3386
A_1     C     0.4034     0.1428     0.1019
A_1     C     0.8848     0.8364     0.7443
A_1     C     0.683     0.0984     0.0992
A_1     C     0.7781     0.5591     0.2766
A_1     C     0.7698     0.8636     0.3591
A_1     C     0.0916     0.1367     0.7196
A_1     C     0.3993     0.0373     0.4115
A_1     C     0.538     0.3318     0.2666
A_1     C     0.3052     0.6822     0.8307
A_1     C     0.2621     0.9208     0.7831
A_1     C     0.3053     0.8693     0.0328
A_1     C     0.5183     0.3776     0.6531
A_1     C     0.1863     0.7877     0.0896
A_1     C     0.786     0.7096     0.1786
A_1     C     0.5539     0.0113     0.8909
A_1     C     0.2417     0.8867     0.3446
A_1     C     0.9577     0.3852     0.2986
A_1     C     0.4743     0.1068     0.7522
A_1     C     0.4577     0.9768     0.1378
A_1     C     0.2156     0.7149     0.2159
A_1     C     0.44     0.9654     0.2529
A_1     C     0.3281     0.9949     0.444
A_1     C     0.6139     0.0995     0.8951
A_1     C     0.9072     0.2531     0.283
A_1     C     0.3938     0.8981     0.2422
A_1     C     0.1272     0.6167     0.765
A_1     C     0.1352     0.9677     0.3316
A_1     C     0.1597     0.9711     0.8247
A_1     C     0.7817     0.2946     0.8039
A_1     C     0.7859     0.5951     0.0589
A_1     C     0.1262     0.6571     0.6238
A_1     C     0.9298     0.0561     0.4141
A_1     C     0.5799     0.9606     0.3327
A_1     C     0.187     0.3252     0.919
A_1     C     0.326     0.3096     0.7948
A_1     C     0.2718     0.7752     0.8867
A_1     C     0.776     0.5618     0.5555
A_1     C     0.0354     0.3037     0.2033
A_1     C     0.9718     0.5112     0.0323
A_1     C     0.645     0.7239     0.1307
A_1     C     0.2266     0.4093     0.8035
A_1     C     0.0843     0.1476     0.6246
A_1     C     0.5499     0.8614     0.3579
A_1     C     0.6476     0.2485     0.884
A_1     C     0.3537     0.8286     0.5455
A_1     C     0.8767     0.9482     0.7427
A_1     C     0.6429     0.3616     0.2519
A_1     C     0.0413     0.2094     0.1686
A_1     C     0.3699     0.7922     0.9684
A_1     C     0.6406     0.9951     0.0963
A_1     C     0.5382     0.7669     0.1206
A_1     C     0.7419     0.4021     0.3806
A_1     C     0.0551     0.3435     0.4135
A_1     C     0.3065     0.78     0.7814
A_1     C     0.4109     0.4043     0.234
A_1     C     0.8085     0.6365     0.9163
A_1     C     0.9866     0.0686     0.6205
A_1     C     0.6428     0.8072     0.3114
A_1     C     0.3082     0.6346     0.4338
A_1     C     0.9097     0.3479     0.9838
A_1     C     0.2015     0.7561     0.5308
A_1     C     0.8604     0.0735     0.1625
A_1     C     0.5779     0.54     0.0696
A_1     C     0.6237     0.592     0.2746
A_1     C     0.4841     0.1207     0.0456
A_1     C     0.6021     0.3029     0.3889
A_1     C     0.9034     0.5771     0.0198
A_1     C     0.4185     0.7193     0.4292
A_1     C     0.1763     0.2166     0.6465
A_1     C     0.2608     0.6321     0.512
A_1     C     0.7598     0.8115     0.3562
A_1     C     0.6188     0.2874     0.1387
A_1     C     0.6131     0.3315     0.4127
A_1     C     0.8991     0.1993     0.4591
A_1     C     0.6406     0.561     0.7473
A_1     C     0.1355     0.2875     0.4391
A_1     C     0.5051     0.0859     0.7469
A_1     C     0.9774     0.0295     0.5896
A_1     C     0.6074     0.1472     0.9067
A_1     C     0.1036     0.2729     0.2929
A_1     C     0.6262     0.638     0.7731
A_1     C     0.5145     0.8133     0.508
A_1     C     0.8344     0.5486     0.6009
A_1     C     0.6913     0.2712     0.0852
A_1     C     0.2454     0.6834     0.7722
A_1     C     0.1138     0.7813     0.873
A_1     C     0.8964     0.1846     0.9614
A_1     C     0.6939     0.0177     0.2715
A_1     C     0.7802     0.3755     0.191
A_1     C     0.9478     0.8353     0.3279
A_1     C     0.2707     0.5248     0.5966
A_1     C     0.4931     0.8345     0.0343
A_1     C     0.257     0.1741     0.5728
A_1     C     0.8283     0.2304     0.7087
A_1     C     0.5012     0.2675     0.5224
A_1     C     0.151     0.5654     0.2863
A_1     C     0.9254     0.483     0.3003
A_1     C     0.6909     0.1246     0.7275
A_1     C     0.4552     0.2221     0.1852
A_1     C     0.0443     0.2579     0.3401
A_1     C     0.1416     0.2078     0.3677
A_1     C     0.5484     0.4839     0.3915
A_1     C     0.8662     0.1008     0.1644
A_1     C     0.6625     0.1112     0.0619
A_1     C     0.7535     0.444     0.0079
A_1     C     0.9794     0.2819     0.0781
A_1     C     0.9566     0.2157     0.4911
A_1     C     0.6972     0.6227     0.9737
A_1     C     0.6194     0.1335     0.4958
A_1     C     0.4607     0.5471     0.4773
A_1     C     0.2514     0.8631     0.2461
A_1     C     0.8035     0.6312     0.52
A_1     C     0.6929     0.7258     0.0279
A_1     C     0.8707     0.6726     0.4968
A_1     C     0.5995     0.8979     0.6668
A_1     C     0.5678     0.9605     0.0655
A_1     C     0.6458     0.3378     0.2337
A_1     C     0.7277     0.4165     0.6235
A_1     C     0.1995     0.1394     0.1729
A_1     C     0.124     0.7707     0.3644
A_1     C     0.1234     0.2601     0.0314
