MAT-10

loop_
_symmetry_equiv_pos_as_xyz
  x,y,z
_cell_length_a          36.8492
_cell_length_b          19.4956
_cell_length_c          22.4009
_cell_angle_alpha       90.0000
_cell_angle_beta        90.0000
_cell_angle_gamma       90.0000
loop_
_atom_site_label
_atom_site_type_symbol
_atom_site_fract_x
_atom_site_fract_y
_atom_site_fract_z
A_1     C     0.738     0.4421     0.5302
A_3     C     0.8295     0.2663     0.2828
A_0     C     0.8791     0.5301     0.8583
A_3     C     0.0698     0.1546     0.3108
A_2     C     0.8766     0.9706     0.4851
A_0     C     0.8669     0.0743     0.2599
A_3     C     0.3704     0.0828     0.354
A_3     C     0.8447     0.4455     0.7615
A_2     C     0.7381     0.5827     0.04
A_1     C     0.555     0.3042     0.8344
A_1     C     0.4591     0.0656     0.0753
A_0     C     0.2655     0.2854     0.1791
A_3     C     0.6674     0.9003     0.8556
A_1     C     0.6522     0.1813     0.5864
A_2     C     0.7983     0.792     0.7676
A_1     C     0.248     0.7635     0.5821
A_0     C     0.7822     0.2028     0.2907
A_3     C     0.0456     0.9469     0.0217
A_2     C     0.0864     0.2115     0.1071
A_1     C     0.4023     0.329     0.5923
A_2     C     0.1531     0.3881     0.1194
A_2     C     0.3601     0.4208     0.8447
A_0     C     0.8308     0.0044     0.4311
A_1     C     0.0864     0.165     0.4623
A_0     C     0.4009     0.7462     0.3633
A_1     C     0.8872     0.2989     0.5461
A_2     C     0.0104     0.0298     0.86
A_3     C     0.7282     0.0523     0.894
A_3     C     0.8335     0.9522     0.2056
A_1     C     0.9241     0.0293     0.3788
A_0     C     0.3772     0.0332     0.314
A_1     C     0.6616     0.2087     0.9752
A_3     C     0.8258     0.4847     0.1028
A_3     C     0.5054     0.5714     0.5253
A_3     C     0.7448     0.9371     0.9991
A_2     C     0.9009     0.407     0.809
A_3     C     0.0627     0.8405     0.6874
A_2     C     0.978     0.378     0.7776
A_3     C     0.001     0.2747     0.3612
A_1     C     0.258     0.2293     0.3172
A_2     C     0.6395     0.9323     0.7364
A_0     C     0.9438     0.9931     0.7658
A_3     C     0.136     0.6655     0.0697
A_0     C     0.3247     0.2365     0.0747
A_0     C     0.0569     0.7577     0.5764
A_0     C     0.3672     0.2364     0.9284
A_2     C     0.2171     0.2264     0.3663
A_1     C     0.6666     0.8094     0.819
A_3     C     0.0449     0.4628     0.2344
A_2     C     0.9626     0.0736     0.2908
A_1     C     0.8197     0.6498     0.8072
A_2     C     0.0059     0.4759     0.2364
A_1     C     0.9504     0.5789     0.2193
A_1     C     0.3728     0.4577     0.0266
A_1     C     0.5569     0.0776     0.258
A_2     C     0.5874     0.5892     0.2228
A_1     C     0.4036     0.0894     0.8953
A_0     C     0.9064     0.2645     0.1889
A_0     C     0.8397     0.3169     0.1267
A_3     C     0.049     0.7502     0.0947
A_1     C     0.7046     0.8582     0.2613
A_1     C     0.6578     0.3637     0.3111
A_3     C     0.432     0.747     0.3655
A_0     C     0.7823     0.1511     0.8885
A_1     C     0.6812     0.66     0.4447
A_1     C     0.4455     0.6312     0.2212
A_3     C     0.0805     0.0672     0.4407
A_2     C     0.9366     0.9404     0.4206
A_0     C     0.5782     0.4526     0.6333
A_0     C     0.6623     0.8336     0.8326
A_3     C     0.5624     0.0657     0.4197
A_3     C     0.8689     0.8402     0.3736
A_2     C     0.4858     0.4218     0.7902
A_3     C     0.0328     0.6226     0.2696
A_1     C     0.827     0.3997     0.4651
A_0     C     0.7665     0.4221     0.6496
A_2     C     0.127     0.3974     0.8647
A_2     C     0.8635     0.725     0.327
A_0     C     0.2615     0.4551     0.3137
A_0     C     0.3668     0.4894     0.4859
A_3     C     0.0725     0.9497     0.6619
A_3     C     0.2983     0.9732     0.6116
A_1     C     0.488     0.8127     0.6159
A_0     C     0.3046     0.4852     0.7492
A_0     C     0.3466     0.6616     0.4381
A_3     C     0.9373     0.3471     0.7707
A_3     C     0.1848     0.2167     0.1027
A_1     C     0.3658     0.6687     0.1368
A_1     C     0.5395     0.859     0.4106
A_3     C     0.3236     0.275     0.9844
A_0     C     0.7066     0.3191     0.0814
A_3     C     0.9583     0.669     0.9929
A_1     C     0.6969     0.4463     0.8882
A_0     C     0.8353     0.1141     0.8055
A_2     C     0.3804     0.4747     0.6612
A_3     C     0.565     0.935     0.2743
A_1     C     0.3076     0.5298     0.9924
A_2     C     0.3374     0.7247     0.549
A_1     C     0.8431     0.5613     0.877
A_0     C     0.1382     0.3269     0.4492
A_1     C     0.115     0.979     0.6539
A_2     C     0.7204     0.7156     0.3182
A_3     C     0.1229     0.5198     0.4525
A_0     C     0.8545     0.7802     0.7548
A_1     C     0.1816     0.6415     0.3887
A_0     C     0.0442     0.9922     0.6781
A_0     C     0.3941     0.0085     0.9861
A_3     C     0.2771     0.0153     0.7569
A_1     C     0.4105     0.8095     0.2899
A_0     C     0.5145     0.526     0.4169
A_2     C     0.3553     0.2159     0.1026
A_0     C     0.9401     0.5531     0.2231
A_2     C     0.092     0.3808     0.1725
A_0     C     0.1388     0.2003     0.5485
A_2     C     0.1874     0.8191     0.7161
A_2     C     0.431     0.1357     0.3006
A_2     C     0.1166     0.0417     0.6738
A_3     C     0.2125     0.4547     0.9949
A_0     C     0.0638     0.5342     0.1401
A_3     C     0.8022     0.0737     0.2281
A_0     C     0.5004     0.8379     0.2783
A_1     C     0.3281     0.2636     0.6892
A_0     C     0.4201     0.6851     0.3606
A_2     C     0.2392     0.6836     0.37
A_0     C     0.1924     0.974     0.4609
A_3     C     0.4451     0.9462     0.6463
A_2     C     0.5446     0.765     0.417
A_0     C     0.9631     0.2776     0.6491
A_2     C     0.1888     0.7925     0.642
A_0     C     0.9709     0.6293     0.4806
A_3     C     0.2749     0.1387     0.6655
A_3     C     0.0342     0.498     0.4992
A_1     C     0.4325     0.3508     0.5568
A_2     C     0.6141     0.1413     0.1939
A_2     C     0.8716     0.8501     0.7926
A_1     C     0.5265     0.0329     0.224
A_1     C     0.974     0.8749     0.4278
A_0     C     0.1958     0.6834     0.1272
A_0     C     0.3298     0.7862     0.0545
A_2     C     0.5688     0.5091     0.9994
A_3     C     0.4893     0.7656     0.7453
A_3     C     0.8178     0.3963     0.1241
A_0     C     0.1874     0.1855     0.3406
A_3     C     0.5797     0.2383     0.9246
A_1     C     0.7897     0.829     0.0897
A_1     C     0.8931     0.4639     0.4883
A_0     C     0.2444     0.5091     0.8376
A_0     C     0.2561     0.4857     0.3801
A_0     C     0.3534     0.5241     0.346
A_2     C     0.1357     0.8184     0.7613
A_1     C     0.6644     0.8626     0.805
A_0     C     0.8546     0.5611     0.5267
A_2     C     0.5673     0.335     0.2323
A_1     C     0.0562     0.2583     0.3859
A_0     C     0.3514     0.2171     0.9088
A_0     C     0.3862     0.998     0.5011
A_1     C     0.1353     0.2893     0.5369
A_3     C     0.5028     0.4662     0.2369
A_0     C     0.4516     0.6855     0.4619
A_1     C     0.6797     0.1632     0.4686
A_3     C     0.6081     0.2421     0.1562
A_0     C     0.8035     0.3136     0.0075
A_2     C     0.7639     0.4004     0.6139
A_1     C     0.4299     0.703     0.717
A_3     C     0.6719     0.8909     0.5503
A_0     C     0.7175     0.3097     0.937
A_3     C     0.6116     0.5855     0.2757
A_2     C     0.1212     0.5422     0.7683
A_0     C     0.7585     0.5094     0.7441
A_3     C     0.0638     0.0613     0.61
A_1     C     0.0945     0.3245     0.8697
A_0     C     0.1048     0.5295     0.6785
A_1     C     0.6936     0.8658     0.9924
A_0     C     0.6644     0.5761     0.2281
A_1     C     0.7634     0.3585     0.6831
A_2     C     0.9919     0.1282     0.0898
A_1     C     0.9959     0.9648     0.4583
A_0     C     0.4357     0.5358     0.6169
A_2     C     0.5625     0.5564     0.237
A_0     C     0.3535     0.8556     0.892
A_1     C     0.9727     0.6221     0.599
A_0     C     0.2532     0.9906     0.4911
A_2     C     0.9435     0.1121     0.4998
A_1     C     0.0773     0.1634     0.3621
A_2     C     0.0423     0.2874     0.1808
A_2     C     0.82     0.6654     0.7268
A_1     C     0.3367     0.1097     0.6294
A_0     C     0.0163     0.7647     0.3825
A_0     C     0.0506     0.8303     0.7721
A_3     C     0.8205     0.3718     0.3595
A_2     C     0.7641     0.3521     0.125
A_2     C     0.7551     0.7084     0.8223
A_2     C     0.1941     0.2779     0.0617
A_1     C     0.0409     0.3908     0.9413
A_3     C     0.0224     0.824     0.651
A_0     C     0.0738     0.3483     0.4984
A_2     C     0.4932     0.6708     0.5351
A_1     C     0.642     0.4582     0.168
A_2     C     0.6023     0.4199     0.2276
A_1     C     0.2841     0.7204     0.9733
A_2     C     0.7585     0.4527     0.7549
A_0     C     0.6705     0.0072     0.7001
A_3     C     0.5268     0.2048     0.008
A_1     C     0.7975     0.1119     0.0959
A_1     C     0.7209     0.4366     0.8544
A_1     C     0.7634     0.7308     0.4292
A_3     C     0.9931     0.7466     0.1306
A_0     C     0.4767     0.8402     0.7127
A_0     C     0.3671     0.8144     0.8224
A_0     C     0.4295     0.9055     0.9026
A_3     C     0.5828     0.481     0.9487
A_1     C     0.9429     0.8892     0.5508
A_3     C     0.5181     0.4519     0.1136
A_2     C     0.801     0.4579     0.9334
A_0     C     0.0563     0.84     0.6903
A_0     C     0.8466     0.6466     0.811
A_0     C     0.605     0.0938     0.2329
A_0     C     0.4883     0.4608     0.4782
A_2     C     0.4034     0.9672     0.6191
A_1     C     0.0208     0.4157     0.4169
A_3     C     0.9566     0.9342     0.8444
A_1     C     0.3852     0.6794     0.0877
A_0     C     0.114     0.8908     0.7232
A_2     C     0.2978     0.6505     0.3484
A_2     C     0.1878     0.4189     0.1764
A_2     C     0.429     0.4213     0.806
A_3     C     0.9148     0.6611     0.3365
A_3     C     0.5004     0.8034     0.8282
A_3     C     0.235     0.911     0.9708
A_1     C     0.491     0.5129     0.6456
A_0     C     0.5121     0.127     0.6697
A_2     C     0.6879     0.6759     0.9648
A_1     C     0.5788     0.1074     0.9902
A_1     C     0.5292     0.3667     0.5872
A_0     C     0.1103     0.7626     0.0007
A_1     C     0.3014     0.442     0.2065
A_3     C     0.5257     0.1865     0.3128
A_3     C     0.3599     0.1676     0.2402
A_1     C     0.222     0.9628     0.0482
A_3     C     0.2288     0.5219     0.187
A_0     C     0.7593     0.6837     0.1378
A_0     C     0.2554     0.1178     0.9682
A_1     C     0.9023     0.2366     0.8657
A_3     C     0.0365     0.9836     0.0822
A_0     C     0.6689     0.0807     0.8476
A_1     C     0.056     0.4357     0.85
A_3     C     0.0628     0.8172     0.7107
A_0     C     0.339     0.7301     0.1077
A_0     C     0.9158     0.1181     0.1381
A_3     C     0.6122     0.8503     0.2835
A_3     C     0.5418     0.8175     0.053
A_1     C     0.6745     0.3687     0.1112
A_1     C     0.5485     0.3152     0.4404
A_2     C     0.0584     0.1098     0.8439
A_3     C     0.5482     0.6852     0.03
A_1     C     0.4192     0.9786     0.5446
A_3     C     0.4456     0.8954     0.9315
A_3     C     0.3564     0.3838     0.498
A_3     C     0.9869     0.5632     0.1645
A_1     C     0.3677     0.2395     0.7752
A_0     C     0.1905     0.8419     0.2304
A_2     C     0.7138     0.7271     0.237
A_0     C     0.3884     0.7805     0.6097
A_1     C     0.7845     0.0397     0.5853
A_2     C     0.3064     0.8143     0.7732
A_3     C     0.5643     0.2855     0.9397
A_0     C     0.9506     0.0357     0.5571
A_1     C     0.5288     0.4396     0.9959
A_2     C     0.6301     0.2586     0.7079
A_2     C     0.2781     0.1662     0.3533
A_3     C     0.593     0.4902     0.4252
A_2     C     0.2855     0.8633     0.8167
A_1     C     0.5052     0.7738     0.5173
A_1     C     0.374     0.6843     0.8966
A_0     C     0.4769     0.6611     0.2862
A_2     C     0.0055     0.0885     0.5505
A_3     C     0.2956     0.454     0.852
A_3     C     0.9422     0.4885     0.3857
A_1     C     0.5585     0.9373     0.5367
A_1     C     0.8153     0.9408     0.7184
A_0     C     0.4754     0.3316     0.9054
A_3     C     0.6816     0.3746     0.5355
A_0     C     0.0782     0.4471     0.8432
A_0     C     0.8123     0.8199     0.6381
A_1     C     0.6166     0.4188     0.817
A_3     C     0.861     0.6147     0.9234
A_3     C     0.6204     0.7422     0.6097
A_3     C     0.1618     0.2027     0.3387
A_3     C     0.0268     0.0608     0.6013
A_3     C     0.8011     0.8391     0.815
A_1     C     0.2517     0.0572     0.2052
A_0     C     0.359     0.645     0.4539
A_1     C     0.4882     0.7383     0.3249
A_2     C     0.2161     0.2695     0.8483
A_1     C     0.681     0.873     0.3003
A_0     C     0.5946     0.5343     0.04
A_3     C     0.2897     0.5837     0.1202
A_2     C     0.7036     0.7019     0.7992
A_3     C     0.836     0.8271     0.2867
A_2     C     0.6598     0.4909     0.3806
A_3     C     0.2892     0.7449     0.9183
A_2     C     0.2603     0.8986     0.5103
A_3     C     0.9063     0.4544     0.3919
A_0     C     0.0632     0.6276     0.1912
A_2     C     0.4552     0.8554     0.1059
A_2     C     0.0068     0.5615     0.8388
A_2     C     0.0645     0.9722     0.8318
A_3     C     0.2921     0.5088     0.8932
A_3     C     0.3752     0.6274     0.1756
A_0     C     0.1605     0.4773     0.119
A_0     C     0.8702     0.765     0.6317
A_2     C     0.9974     0.9525     0.1184
A_2     C     0.4027     0.7622     0.0225
A_0     C     0.9071     0.4471     0.42
A_3     C     0.8778     0.1355     0.8796
A_3     C     0.2542     0.2194     0.7463
A_0     C     0.906     0.216     0.5828
A_2     C     0.8148     0.27     0.2906
A_3     C     0.7802     0.0143     0.2476
A_1     C     0.9839     0.922     0.1615
A_3     C     0.2767     0.4681     0.3458
A_1     C     0.096     0.3235     0.1553
A_3     C     0.9137     0.5872     0.3467
A_1     C     0.1411     0.2553     0.1987
A_1     C     0.8219     0.7028     0.4535
A_1     C     0.5763     0.887     0.3234
A_1     C     0.065     0.9664     0.1002
A_0     C     0.8188     0.6862     0.9845
A_1     C     0.6231     0.8561     0.6524
A_1     C     0.655     0.1606     0.0307
A_3     C     0.5856     0.3814     0.1727
A_2     C     0.0428     0.3688     0.3839
A_1     C     0.6881     0.9825     0.1453
A_3     C     0.0072     0.2622     0.2108
A_0     C     0.4045     0.0602     0.2944
A_1     C     0.8438     0.661     0.5784
A_2     C     0.8307     0.1061     0.072
A_2     C     0.215     0.872     0.5865
A_0     C     0.5334     0.4084     0.6663
A_1     C     0.6421     0.0609     0.2172
A_3     C     0.0877     0.0358     0.0747
A_0     C     0.8812     0.4857     0.1411
A_1     C     0.8687     0.3733     0.6617
A_1     C     0.0574     0.2767     0.5887
A_1     C     0.7306     0.5885     0.5252
A_2     C     0.37     0.5509     0.5966
A_2     C     0.554     0.5345     0.1762
A_3     C     0.4536     0.2554     0.3479
A_1     C     0.6007     0.389     0.4079
A_3     C     0.7631     0.5093     0.4923
A_2     C     0.4505     0.886     0.9959
A_2     C     0.802     0.0911     0.4471
A_3     C     0.6085     0.1984     0.7604
A_3     C     0.7535     0.8739     0.9172
A_3     C     0.5769     0.6656     0.8439
A_3     C     0.3971     0.3856     0.3467
A_2     C     0.0344     0.9645     0.0874
A_1     C     0.7532     0.3091     0.9962
A_0     C     0.2108     0.5489     0.3771
A_0     C     0.1034     0.8285     0.976
A_2     C     0.934     0.499     0.2659
A_3     C     0.4314     0.7382     0.6959
A_1     C     0.6749     0.2316     0.6643
A_1     C     0.1579     0.1007     0.5894
A_2     C     0.5552     0.1315     0.9435
A_0     C     0.4766     0.1254     0.922
A_0     C     0.7126     0.8732     0.2515
A_2     C     0.3118     0.4819     0.9489
A_1     C     0.1333     0.1533     0.813
A_0     C     0.8687     0.1735     0.1221
A_1     C     0.2543     0.2945     0.5697
A_0     C     0.0341     0.5144     0.3558
A_3     C     0.1313     0.4933     0.3771
A_2     C     0.7804     0.6691     0.2195
A_3     C     0.7567     0.6051     0.6928
A_2     C     0.0125     0.603     0.4131
A_3     C     0.1746     0.3682     0.117
A_2     C     0.1689     0.0625     0.7462
A_2     C     0.0593     0.1563     0.3943
A_3     C     0.849     0.8642     0.4432
A_1     C     0.476     0.1867     0.1219
A_0     C     0.3991     0.1165     0.036
A_2     C     0.205     0.449     0.6806
A_0     C     0.8398     0.2585     0.7174
A_1     C     0.7879     0.5312     0.3545
A_1     C     0.238     0.2062     0.6898
A_3     C     0.8606     0.1157     0.3549
A_2     C     0.8682     0.2649     0.7484
A_1     C     0.8538     0.8089     0.5066
A_1     C     0.0     0.9803     0.1684
A_2     C     0.7757     0.9918     0.2704
A_1     C     0.0005     0.7695     0.3271
A_0     C     0.2169     0.9439     0.7834
A_0     C     0.6711     0.3719     0.2626
A_1     C     0.5719     0.7964     0.1284
A_3     C     0.1071     0.4021     0.7248
A_1     C     0.8116     0.3057     0.9325
A_0     C     0.9178     0.2613     0.6479
A_0     C     0.7757     0.5443     0.3479
A_2     C     0.4766     0.3021     0.2285
A_0     C     0.9354     0.1021     0.9983
A_0     C     0.1402     0.6627     0.6437
A_1     C     0.7584     0.2092     0.0257
A_3     C     0.9219     0.9369     0.4936
A_1     C     0.5767     0.7614     0.6096
A_3     C     0.8688     0.5094     0.0418
A_0     C     0.2591     0.3062     0.21
A_2     C     0.8171     0.3386     0.4106
A_2     C     0.0645     0.8653     0.4983
A_2     C     0.0219     0.5919     0.8598
A_3     C     0.535     0.7705     0.7458
A_0     C     0.1559     0.9593     0.919
A_2     C     0.2037     0.5689     0.428
A_0     C     0.6202     0.8169     0.153
A_0     C     0.8011     0.6367     0.4541
A_3     C     0.3863     0.3805     0.0352
A_0     C     0.4017     0.8082     0.2682
A_2     C     0.3286     0.196     0.1221
A_1     C     0.5213     0.3845     0.0319
A_2     C     0.528     0.3841     0.5475
A_1     C     0.6923     0.3009     0.3829
A_2     C     0.3519     0.2252     0.154
A_2     C     0.8506     0.865     0.1797
A_1     C     0.8164     0.6078     0.1007
A_1     C     0.1957     0.8375     0.287
A_0     C     0.5013     0.0675     0.7067
A_0     C     0.991     0.9391     0.6981
A_0     C     0.5579     0.7943     0.5321
A_0     C     0.7891     0.0288     0.0706
A_0     C     0.9161     0.3783     0.0357
A_1     C     0.3699     0.2978     0.412
A_1     C     0.0556     0.271     0.4737
A_3     C     0.7065     0.1004     0.0034
A_2     C     0.1105     0.4385     0.4411
A_0     C     0.902     0.0011     0.4773
A_0     C     0.3328     0.0222     0.271
A_2     C     0.471     0.4988     0.8576
A_1     C     0.9563     0.0781     0.5974
A_1     C     0.4101     0.1207     0.479
A_2     C     0.1314     0.4142     0.456
A_1     C     0.0425     0.8816     0.451
A_3     C     0.1607     0.138     0.7986
A_3     C     0.7253     0.306     0.0212
A_1     C     0.1188     0.0342     0.9458
A_3     C     0.4626     0.7763     0.9578
A_3     C     0.696     0.4293     0.6491
A_2     C     0.8809     0.7547     0.0682
A_0     C     0.3832     0.9053     0.3787
A_0     C     0.3514     0.8755     0.4111
A_3     C     0.4433     0.0698     0.214
A_1     C     0.5225     0.2492     0.4997
A_3     C     0.7129     0.0542     0.6709
A_3     C     0.1119     0.1067     0.4941
A_2     C     0.2     0.6143     0.1726
A_0     C     0.9539     0.0199     0.3425
A_1     C     0.9285     0.0046     0.4051
A_3     C     0.2753     0.5441     0.5036
A_3     C     0.6407     0.5205     0.3699
A_2     C     0.3337     0.096     0.9016
A_2     C     0.4445     0.8375     0.476
A_1     C     0.3964     0.2106     0.7733
A_3     C     0.8371     0.364     0.2423
A_2     C     0.4703     0.0866     0.971
A_2     C     0.7494     0.9706     0.9534
A_1     C     0.4924     0.607     0.1757
A_2     C     0.5445     0.3362     0.9773
A_3     C     0.8576     0.7884     0.0522
A_0     C     0.1973     0.2786     0.86
A_2     C     0.1684     0.3889     0.597
A_0     C     0.5922     0.069     0.5972
A_2     C     0.3409     0.2287     0.5718
A_2     C     0.8664     0.4919     0.1001
A_2     C     0.9352     0.2057     0.9822
A_0     C     0.339     0.2424     0.1914
A_1     C     0.3825     0.2789     0.1305
A_3     C     0.8802     0.0249     0.7369
A_2     C     0.9699     0.5009     0.7569
A_0     C     0.4885     0.0284     0.277
A_3     C     0.7828     0.0142     0.4157
A_3     C     0.0183     0.7234     0.6782
A_3     C     0.4445     0.0034     0.4506
A_0     C     0.2818     0.2138     0.0419
A_0     C     0.9707     0.2436     0.4276
A_1     C     0.0503     0.6074     0.4514
A_0     C     0.1737     0.6423     0.7949
A_0     C     0.4948     0.1788     0.0985
A_1     C     0.0086     0.4564     0.5059
A_0     C     0.2313     0.973     0.9423
A_0     C     0.8282     0.9157     0.8621
A_2     C     0.1435     0.2644     0.2677
A_2     C     0.8225     0.8299     0.5497
A_1     C     0.8273     0.7888     0.2364
A_2     C     0.195     0.4271     0.7792
A_1     C     0.2279     0.3283     0.8754
A_3     C     0.4575     0.9442     0.7931
A_2     C     0.0171     0.9796     0.7834
A_0     C     0.3674     0.5971     0.4876
A_0     C     0.759     0.2809     0.909
A_2     C     0.2187     0.621     0.9854
A_3     C     0.3261     0.3781     0.7908
A_0     C     0.6779     0.54     0.5251
A_0     C     0.4974     0.0251     0.8614
A_2     C     0.4856     0.8159     0.7425
A_2     C     0.0095     0.2154     0.1308
A_2     C     0.2494     0.359     0.6707
A_3     C     0.9311     0.5218     0.3055
A_1     C     0.6069     0.9271     0.1789
A_1     C     0.4962     0.686     0.1016
A_3     C     0.5862     0.3373     0.8688
A_3     C     0.061     0.5434     0.5442
A_1     C     0.5678     0.8112     0.3689
A_1     C     0.3643     0.6595     0.7772
A_0     C     0.1742     0.1583     0.8284
A_0     C     0.2068     0.4525     0.2425
A_2     C     0.5149     0.5598     0.651
A_2     C     0.4851     0.8558     0.3344
A_2     C     0.0787     0.6025     0.4434
A_0     C     0.6915     0.1644     0.1198
A_3     C     0.9568     0.1788     0.119
A_0     C     0.1781     0.2649     0.7295
A_2     C     0.6589     0.0198     0.0878
A_2     C     0.5812     0.673     0.5257
A_3     C     0.2769     0.3602     0.9884
A_3     C     0.4966     0.1383     0.9603
A_1     C     0.3724     0.0266     0.5969
A_3     C     0.4211     0.6049     0.502
A_0     C     0.6899     0.2934     0.214
A_3     C     0.7541     0.2879     0.7699
A_1     C     0.5087     0.4015     0.7664
A_0     C     0.2355     0.0157     0.2817
A_3     C     0.7161     0.1689     0.0409
A_0     C     0.8992     0.9746     0.2442
A_1     C     0.5624     0.8625     0.566
A_0     C     0.2283     0.67     0.2925
A_2     C     0.5943     0.2205     0.7885
A_3     C     0.1908     0.55     0.6532
A_3     C     0.81     0.8126     0.5038
A_0     C     0.9445     0.0431     0.6831
A_2     C     0.0087     0.2625     0.225
A_2     C     0.7106     0.4499     0.0925
A_3     C     0.6107     0.6361     0.4797
A_2     C     0.7922     0.203     0.3379
A_2     C     0.0541     0.7245     0.2614
A_3     C     0.4624     0.9118     0.2594
A_3     C     0.2705     0.6087     0.5337
A_0     C     0.2047     0.4966     0.3307
A_2     C     0.183     0.2835     0.4597
A_2     C     0.2384     0.8127     0.0992
A_0     C     0.8626     0.6516     0.5911
A_1     C     0.8028     0.6299     0.1707
A_0     C     0.6841     0.0716     0.425
A_2     C     0.3888     0.0741     0.5444
A_3     C     0.4909     0.7254     0.384
A_2     C     0.8114     0.4664     0.6755
A_2     C     0.6543     0.0655     0.2936
A_2     C     0.0256     0.5928     0.2894
A_1     C     0.6388     0.1906     0.2336
A_2     C     0.7366     0.4007     0.763
A_0     C     0.687     0.3737     0.8683
A_1     C     0.6586     0.5072     0.648
A_1     C     0.4767     0.7701     0.4065
A_1     C     0.1154     0.86     0.1008
A_1     C     0.4449     0.3844     0.3218
A_1     C     0.4839     0.8599     0.317
A_0     C     0.4965     0.968     0.5437
A_0     C     0.5714     0.8469     0.4992
A_1     C     0.0978     0.0638     0.2962
A_0     C     0.3476     0.8011     0.668
A_2     C     0.0982     0.0829     0.2979
A_3     C     0.3581     0.7842     0.9715
A_3     C     0.6452     0.933     0.4708
A_0     C     0.0867     0.5112     0.3841
A_3     C     0.7823     0.7213     0.5664
A_2     C     0.3304     0.1153     0.0806
A_3     C     0.0481     0.2542     0.9482
A_3     C     0.076     0.2395     0.5817
A_2     C     0.551     0.5503     0.0027
A_3     C     0.704     0.0837     0.1653
A_3     C     0.7699     0.1978     0.9358
A_0     C     0.0971     0.4022     0.3939
A_3     C     0.7859     0.0598     0.3317
A_0     C     0.0448     0.0243     0.8913
A_3     C     0.4808     0.2837     0.7582
A_1     C     0.0985     0.1885     0.774
A_3     C     0.0926     0.2791     0.9229
A_1     C     0.4059     0.7196     0.5382
A_1     C     0.6167     0.4998     0.2508
A_1     C     0.3084     0.587     0.6599
A_2     C     0.4479     0.791     0.1964
A_2     C     0.3203     0.9803     0.143
A_0     C     0.8173     0.333     0.201
A_2     C     0.2207     0.1654     0.901
A_0     C     0.0049     0.5143     0.8711
A_1     C     0.6351     0.626     0.3892
A_3     C     0.7437     0.9959     0.2426
A_2     C     0.1003     0.7846     0.2664
A_0     C     0.9402     0.8792     0.5196
A_1     C     0.0182     0.5152     0.9968
A_2     C     0.638     0.5332     0.056
A_2     C     0.4591     0.4172     0.5095
A_0     C     0.4118     0.2266     0.81
A_1     C     0.2097     0.4212     0.1133
A_1     C     0.3287     0.3033     0.2348
A_2     C     0.1294     0.2495     0.2853
A_1     C     0.9271     0.2008     0.4572
A_2     C     0.0715     0.4733     0.8274
A_2     C     0.3064     0.5439     0.2062
A_1     C     0.215     0.5012     0.0761
A_1     C     0.2844     0.795     0.8652
A_3     C     0.1987     0.4026     0.9118
A_2     C     0.4628     0.2406     0.1472
A_1     C     0.0274     0.3672     0.62
A_0     C     0.7687     0.3905     0.9616
A_0     C     0.0369     0.2868     0.1798
A_3     C     0.9709     0.1149     0.3141
A_3     C     0.0694     0.9243     0.7338
A_0     C     0.8812     0.71     0.4065
A_0     C     0.55     0.9843     0.1064
A_2     C     0.7426     0.6268     0.1381
A_2     C     0.2042     0.3644     0.2504
A_1     C     0.7295     0.7738     0.3524
A_3     C     0.1774     0.2582     0.0173
A_2     C     0.7409     0.7408     0.0942
A_2     C     0.5023     0.4763     0.2917
A_3     C     0.63     0.9666     0.146
A_0     C     0.6133     0.75     0.9741
A_1     C     0.7781     0.7626     0.1936
A_3     C     0.8627     0.9415     0.5191
A_0     C     0.6462     0.5406     0.5308
A_0     C     0.7252     0.5846     0.8597
A_2     C     0.1166     0.5699     0.008
A_0     C     0.3781     0.554     0.1416
A_2     C     0.8751     0.0359     0.1556
A_2     C     0.5435     0.0733     0.9591
A_0     C     0.3021     0.0409     0.4645
A_2     C     0.3383     0.5152     0.6987
A_2     C     0.2304     0.4976     0.2097
A_0     C     0.8286     0.8702     0.9852
A_0     C     0.0793     0.7352     0.9073
A_0     C     0.9688     0.7123     0.3659
A_3     C     0.5626     0.6463     0.5561
A_2     C     0.3661     0.7784     0.6128
A_0     C     0.0205     0.9588     0.0522
A_1     C     0.1731     0.8997     0.1389
A_2     C     0.6891     0.2861     0.1958
A_0     C     0.5919     0.0065     0.1893
A_2     C     0.1501     0.5891     0.34
A_2     C     0.1604     0.4978     0.0058
A_1     C     0.3351     0.0873     0.7697
A_2     C     0.7221     0.1728     0.1217
A_3     C     0.3284     0.3718     0.3269
A_0     C     0.1129     0.6052     0.0261
A_1     C     0.647     0.2625     0.696
A_1     C     0.4231     0.0634     0.2879
A_2     C     0.01     0.3612     0.4812
A_2     C     0.037     0.9086     0.4445
A_0     C     0.1539     0.5358     0.5391
A_1     C     0.7567     0.6966     0.4901
A_3     C     0.6434     0.1515     0.2394
A_2     C     0.5177     0.8535     0.863
A_1     C     0.6269     0.3332     0.2718
A_1     C     0.244     0.1408     0.3444
A_1     C     0.1413     0.7802     0.7563
A_0     C     0.2559     0.1859     0.0571
A_1     C     0.2697     0.2259     0.5836
A_0     C     0.5075     0.7132     0.1647
A_1     C     0.9038     0.1457     0.9569
A_1     C     0.8632     0.3096     0.8677
A_2     C     0.1662     0.7209     0.0125
A_0     C     0.3296     0.581     0.908
A_3     C     0.028     0.9737     0.8311
A_2     C     0.5146     0.9335     0.0857
A_1     C     0.1556     0.6745     0.3017
A_0     C     0.6771     0.6247     0.2966
A_0     C     0.9919     0.1838     0.8547
A_3     C     0.7592     0.6583     0.4596
A_1     C     0.0995     0.1684     0.4475
A_1     C     0.3751     0.7078     0.194
A_2     C     0.0085     0.713     0.3462
A_2     C     0.856     0.2266     0.3508
A_1     C     0.2989     0.607     0.903
A_3     C     0.3089     0.6796     0.5194
A_2     C     0.4208     0.9037     0.4128
A_2     C     0.8352     0.934     0.0467
A_0     C     0.6922     0.5039     0.8198
A_1     C     0.9769     0.2773     0.829
A_0     C     0.2968     0.3694     0.2135
A_0     C     0.2427     0.5844     0.2867
A_2     C     0.6468     0.3343     0.8196
A_3     C     0.9734     0.6125     0.6619
A_1     C     0.7653     0.577     0.5759
A_0     C     0.5373     0.5426     0.3971
A_1     C     0.3949     0.14     0.7766
A_2     C     0.389     0.1581     0.998
A_1     C     0.5871     0.2625     0.8679
A_2     C     0.3972     0.4848     0.2691
A_3     C     0.6243     0.2134     0.9339
A_3     C     0.0576     0.9949     0.1148
A_0     C     0.7448     0.528     0.6809
A_1     C     0.5343     0.8296     0.0731
A_3     C     0.3365     0.6861     0.6114
A_1     C     0.7657     0.9549     0.676
A_3     C     0.9995     0.4178     0.839
