MAT-54

loop_
_symmetry_equiv_pos_as_xyz
  x,y,z
_cell_length_a          27.6991
_cell_length_b          42.2816
_cell_length_c          35.7382
_cell_angle_alpha       90.0000
_cell_angle_beta        90.0000
_cell_angle_gamma       90.0000
loop_
_atom_site_label
_atom_site_type_symbol
_atom_site_fract_x
_atom_site_fract_y
_atom_site_fract_z
A_1     C     0.6056     0.3629     0.9267
A_3     C     0.1962     0.5389     0.8891
A_1     C     0.489     0.0309     0.7582
A_2     C     0.5151     0.7469     0.559
A_1     C     0.0837     0.5302     0.716
A_2     C     0.6812     0.0506     0.2361
A_0     C     0.8669     0.8771     0.198
A_0     C     0.417     0.198     0.3108
A_0     C     0.0538     0.6225     0.5425
A_3     C     0.8763     0.0389     0.5163
A_1     C     0.1411     0.9693     0.7877
A_2     C     0.7157     0.9274     0.7616
A_1     C     0.1958     0.167     0.1865
A_1     C     0.6724     0.7731     0.1948
A_1     C     0.8352     0.8799     0.3018
A_3     C     0.7687     0.6232     0.1823
A_1     C     0.9617     0.6738     0.5781
A_0     C     0.4235     0.5163     0.5501
A_2     C     0.806     0.8657     0.6833
A_1     C     0.2792     0.6301     0.3842
A_2     C     0.2363     0.9719     0.3962
A_3     C     0.1377     0.3168     0.5523
A_1     C     0.738     0.0547     0.7435
A_3     C     0.2982     0.7057     0.4045
A_2     C     0.6127     0.6044     0.2435
A_2     C     0.1508     0.6808     0.11
A_2     C     0.5914     0.7345     0.4933
A_0     C     0.5052     0.5287     0.3291
A_0     C     0.9266     0.7816     0.607
A_2     C     0.4857     0.0857     0.8783
A_1     C     0.1082     0.1002     0.4698
A_0     C     0.393     0.085     0.4681
A_3     C     0.8588     0.8622     0.8099
A_1     C     0.5274     0.1803     0.2973
A_3     C     0.7172     0.2442     0.1093
A_1     C     0.654     0.5054     0.4738
A_2     C     0.2885     0.9811     0.5419
A_3     C     0.2291     0.4683     0.7688
A_1     C     0.9116     0.0514     0.1848
A_0     C     0.0967     0.9826     0.8046
A_0     C     0.3102     0.7896     0.761
A_1     C     0.8412     0.8047     0.0823
A_1     C     0.212     0.0995     0.9259
A_0     C     0.28     0.664     0.4786
A_0     C     0.0025     0.2441     0.1754
A_2     C     0.8018     0.6719     0.6671
A_3     C     0.9332     0.2251     0.5544
A_3     C     0.167     0.1829     0.0609
A_2     C     0.7861     0.0814     0.8386
A_1     C     0.8474     0.6635     0.0025
A_3     C     0.288     0.0738     0.94
A_1     C     0.7392     0.9374     0.9799
A_2     C     0.9804     0.751     0.188
A_1     C     0.8492     0.2787     0.2658
A_0     C     0.9168     0.7458     0.5601
A_1     C     0.9308     0.8438     0.1598
A_3     C     0.6065     0.184     0.2729
A_0     C     0.5057     0.4554     0.4273
A_0     C     0.3103     0.7994     0.1891
A_3     C     0.6279     0.1585     0.3896
A_0     C     0.382     0.7142     0.2015
A_2     C     0.5962     0.5205     0.7769
A_3     C     0.3373     0.521     0.769
A_1     C     0.67     0.4663     0.6381
A_3     C     0.527     0.1213     0.0751
A_3     C     0.2422     0.5352     0.7066
A_2     C     0.0668     0.7044     0.7818
A_0     C     0.7306     0.6238     0.6868
A_3     C     0.9409     0.7448     0.1963
A_1     C     0.5428     0.0657     0.9676
A_0     C     0.9715     0.4561     0.5721
A_2     C     0.628     0.5653     0.2821
A_2     C     0.8172     0.9592     0.1915
A_1     C     0.5521     0.3707     0.7868
A_3     C     0.4694     0.9455     0.6876
A_0     C     0.8332     0.5083     0.0317
A_2     C     0.7917     0.3938     0.0391
A_2     C     0.1835     0.9082     0.9501
A_3     C     0.0485     0.7416     0.4568
A_3     C     0.2272     0.5168     0.4588
A_3     C     0.5128     0.5353     0.9524
A_0     C     0.8488     0.5041     0.0031
A_0     C     0.4647     0.7955     0.5634
A_3     C     0.3593     0.8088     0.6641
A_1     C     0.3921     0.7783     0.9736
A_0     C     0.3596     0.8865     0.9611
A_1     C     0.2299     0.8712     0.8023
A_1     C     0.836     0.9768     0.5748
A_2     C     0.9768     0.236     0.7635
A_1     C     0.093     0.1451     0.8069
A_2     C     0.2659     0.3122     0.1072
A_1     C     0.1659     0.8979     0.8053
A_2     C     0.9211     0.4661     0.7589
A_3     C     0.7638     0.0262     0.821
A_3     C     0.9728     0.1676     0.5921
A_3     C     0.6115     0.574     0.89
A_2     C     0.3897     0.0291     0.862
A_2     C     0.4865     0.5521     0.1814
A_3     C     0.0597     0.8485     0.8206
A_3     C     0.9582     0.9416     0.8719
A_2     C     0.8174     0.4581     0.883
A_2     C     0.4687     0.8414     0.3048
A_1     C     0.3383     0.6512     0.235
A_2     C     0.6743     0.689     0.9858
A_1     C     0.4788     0.4981     0.7521
A_0     C     0.9763     0.601     0.6029
A_3     C     0.7731     0.0539     0.7361
A_3     C     0.0695     0.464     0.5123
A_0     C     0.6561     0.7279     0.2269
A_2     C     0.595     0.7937     0.7416
A_3     C     0.6847     0.5616     0.4192
A_3     C     0.2491     0.9586     0.3466
A_3     C     0.0288     0.7404     0.8881
A_1     C     0.4417     0.3511     0.1561
A_1     C     0.4882     0.875     0.9903
A_3     C     0.1828     0.1756     0.2314
A_0     C     0.7332     0.1269     0.3333
A_3     C     0.584     0.4001     0.0468
A_1     C     0.3436     0.1699     0.3238
A_3     C     0.7769     0.9709     0.5881
A_1     C     0.3822     0.471     0.3138
A_2     C     0.2071     0.8289     0.0319
A_3     C     0.9867     0.2072     0.1747
A_3     C     0.7229     0.5412     0.287
A_2     C     0.1477     0.0091     0.1428
A_0     C     0.0395     0.9373     0.6071
A_3     C     0.2173     0.9691     0.9629
A_1     C     0.9162     0.3611     0.9237
A_3     C     0.3984     0.7637     0.1662
A_1     C     0.1789     0.6165     0.9509
A_2     C     0.5821     0.0025     0.1999
A_2     C     0.3743     0.0886     0.5295
A_2     C     0.4     0.6685     0.6818
A_0     C     0.4858     0.917     0.2782
A_3     C     0.7291     0.5439     0.807
A_2     C     0.1084     0.0401     0.0587
A_1     C     0.91     0.6299     0.1335
A_1     C     0.5623     0.5481     0.6059
A_0     C     0.8721     0.8762     0.8723
A_1     C     0.8702     0.7681     0.1328
A_3     C     0.3927     0.7513     0.1819
A_1     C     0.5268     0.1726     0.9708
A_0     C     0.815     0.2112     0.3619
A_1     C     0.8854     0.1115     0.5716
A_3     C     0.192     0.0889     0.3993
A_3     C     0.3407     0.7419     0.4696
A_3     C     0.6263     0.5912     0.2092
A_3     C     0.6584     0.41     0.4106
A_1     C     0.7045     0.2757     0.3517
A_2     C     0.7927     0.3048     0.228
A_1     C     0.5413     0.1005     0.2423
A_3     C     0.7943     0.9156     0.6951
A_0     C     0.2361     0.3552     0.0872
A_1     C     0.5462     0.3258     0.6626
A_3     C     0.0663     0.5532     0.8487
A_3     C     0.9523     0.8542     0.4133
A_2     C     0.0144     0.0332     0.3014
A_0     C     0.6396     0.197     0.1726
A_1     C     0.9778     0.6105     0.9617
A_0     C     0.7798     0.2295     0.775
A_3     C     0.4727     0.5363     0.0437
A_0     C     0.5433     0.1506     0.1162
A_0     C     0.9845     0.1824     0.2304
A_3     C     0.814     0.3689     0.1356
A_3     C     0.5677     0.2139     0.1064
A_2     C     0.5654     0.2182     0.6747
A_2     C     0.5994     0.7557     0.6861
A_1     C     0.8744     0.102     0.9837
A_1     C     0.8942     0.946     0.2379
A_0     C     0.6786     0.7392     0.7276
A_0     C     0.5636     0.4201     0.3269
A_2     C     0.8679     0.0697     0.5383
A_2     C     0.2052     0.2908     0.573
A_3     C     0.8671     0.2473     0.9626
A_2     C     0.378     0.2684     0.6386
A_0     C     0.849     0.0364     0.2763
A_1     C     0.1112     0.1546     0.4728
A_0     C     0.5997     0.4758     0.814
A_1     C     0.9973     0.5779     0.3101
A_0     C     0.7251     0.7285     0.7073
A_1     C     0.1397     0.3955     0.8053
A_2     C     0.0668     0.1294     0.1912
A_3     C     0.4614     0.2137     0.245
A_1     C     0.632     0.0518     0.8419
A_2     C     0.1955     0.4915     0.9201
A_2     C     0.6029     0.9637     0.1994
A_0     C     0.518     0.3285     0.3882
A_2     C     0.4505     0.0287     0.7234
A_0     C     0.6329     0.3593     0.5126
A_0     C     0.2853     0.9422     0.071
A_3     C     0.5574     0.9622     0.6448
A_0     C     0.7789     0.3655     0.5012
A_3     C     0.224     0.8828     0.0594
A_2     C     0.392     0.6597     0.6589
A_2     C     0.5577     0.1439     0.1613
A_3     C     0.2949     0.3268     0.7407
A_2     C     0.5492     0.1424     0.6486
A_3     C     0.9275     0.5175     0.325
A_0     C     0.6422     0.9399     0.3082
A_3     C     0.8493     0.8572     0.4665
A_2     C     0.7985     0.7076     0.8638
A_0     C     0.9049     0.1131     0.9847
A_0     C     0.9018     0.0873     0.6208
A_2     C     0.6068     0.2992     0.0429
A_1     C     0.0851     0.5283     0.0112
A_3     C     0.1446     0.2395     0.3065
A_1     C     0.4853     0.9031     0.6032
A_1     C     0.6872     0.7935     0.9512
A_3     C     0.0839     0.4683     0.8035
A_2     C     0.2261     0.842     0.3283
A_0     C     0.1771     0.7438     0.6357
A_3     C     0.6347     0.1144     0.7262
A_2     C     0.379     0.2086     0.889
A_0     C     0.1492     0.1656     0.8151
A_2     C     0.9965     0.0504     0.7689
A_3     C     0.1462     0.4914     0.8069
A_0     C     0.3109     0.5921     0.2123
A_1     C     0.9952     0.2795     0.8025
A_3     C     0.4176     0.2357     0.9745
A_3     C     0.5677     0.2074     0.4012
A_2     C     0.6542     0.2926     0.9599
A_3     C     0.7896     0.3312     0.6603
A_3     C     0.2199     0.0999     0.7406
A_3     C     0.6535     0.1832     0.9848
A_3     C     0.3544     0.7315     0.491
A_3     C     0.2677     0.1232     0.5336
A_1     C     0.3458     0.5375     0.2835
A_1     C     0.5986     0.9803     0.839
A_3     C     0.4319     0.1743     0.8395
A_1     C     0.546     0.2292     0.0747
A_1     C     0.2175     0.3038     0.9084
A_3     C     0.6851     0.6335     0.4111
A_0     C     0.4991     0.1524     0.1977
A_3     C     0.0232     0.8978     0.6519
A_3     C     0.3805     0.6347     0.3183
A_3     C     0.2556     0.7933     0.4165
A_2     C     0.9312     0.0385     0.0
A_0     C     0.7952     0.9758     0.1435
A_0     C     0.2665     0.0955     0.9353
A_3     C     0.8865     0.4841     0.1539
A_3     C     0.5175     0.9315     0.744
A_2     C     0.6928     0.7719     0.9824
A_3     C     0.1541     0.7615     0.2627
A_0     C     0.7088     0.7251     0.1691
A_1     C     0.5205     0.1824     0.5353
A_0     C     0.6227     0.6789     0.4362
A_1     C     0.1469     0.4681     0.2227
A_0     C     0.1322     0.8776     0.6364
A_3     C     0.0005     0.9054     0.5396
A_3     C     0.7098     0.2634     0.0835
A_1     C     0.8839     0.9514     0.1415
A_0     C     0.7449     0.4792     0.4403
A_3     C     0.2521     0.5236     0.8053
A_1     C     0.9889     0.0008     0.5429
A_1     C     0.3065     0.9128     0.7346
A_1     C     0.8646     0.9895     0.1106
A_3     C     0.169     0.9602     0.4801
A_0     C     0.2556     0.8237     0.0552
A_3     C     0.8159     0.3607     0.389
A_2     C     0.2476     0.8477     0.2438
A_2     C     0.1514     0.2169     0.2486
A_3     C     0.6263     0.8153     0.9349
A_0     C     0.7485     0.7018     0.4112
A_2     C     0.6089     0.7032     0.2682
A_1     C     0.1504     0.8009     0.3041
A_0     C     0.3679     0.419     0.0368
A_2     C     0.8973     0.3586     0.0618
A_3     C     0.2128     0.1379     0.9877
A_3     C     0.7089     0.2264     0.9974
A_0     C     0.3028     0.9816     0.8441
A_2     C     0.9916     0.3007     0.3117
A_3     C     0.8901     0.0746     0.0391
A_3     C     0.8499     0.6809     0.6884
A_3     C     0.3031     0.3832     0.4509
A_3     C     0.8194     0.459     0.1898
A_3     C     0.8928     0.5682     0.1227
A_3     C     0.5935     0.3163     0.1907
A_3     C     0.7749     0.7509     0.2976
A_3     C     0.8125     0.2542     0.8454
A_3     C     0.7859     0.7854     0.6943
A_3     C     0.2856     0.8743     0.3922
A_3     C     0.5185     0.8809     0.3787
A_3     C     0.2293     0.2659     0.8339
A_3     C     0.4178     0.4883     0.3185
