MAT-76

loop_
_symmetry_equiv_pos_as_xyz
  x,y,z
_cell_length_a          36.3528
_cell_length_b          47.7225
_cell_length_c          32.0358
_cell_angle_alpha       90.0000
_cell_angle_beta        90.0000
_cell_angle_gamma       90.0000
loop_
_atom_site_label
_atom_site_type_symbol
_atom_site_fract_x
_atom_site_fract_y
_atom_site_fract_z
A_1     C     0.764     0.3682     0.9536
A_3     C     0.703     0.5019     0.6002
A_0     C     0.9172     0.9462     0.9251
A_2     C     0.1524     0.3013     0.6226
A_0     C     0.3946     0.324     0.1143
A_3     C     0.2761     0.0676     0.5702
A_2     C     0.6093     0.5296     0.1247
A_3     C     0.5314     0.9573     0.8158
A_3     C     0.9936     0.9811     0.5131
A_2     C     0.8123     0.4931     0.4838
A_3     C     0.0021     0.7209     0.9161
A_2     C     0.7445     0.9531     0.8051
A_3     C     0.7394     0.5583     0.0403
A_2     C     0.5529     0.8098     0.7737
A_3     C     0.5505     0.669     0.0185
A_0     C     0.757     0.9844     0.8468
A_3     C     0.055     0.4096     0.6127
A_3     C     0.5628     0.066     0.1406
A_3     C     0.4     0.2497     0.971
A_1     C     0.7549     0.6238     0.6917
A_1     C     0.854     0.3152     0.4489
A_1     C     0.0458     0.7933     0.1277
A_2     C     0.618     0.8842     0.9539
A_2     C     0.5255     0.7869     0.6397
A_1     C     0.6142     0.5271     0.386
A_3     C     0.294     0.337     0.6017
A_3     C     0.4801     0.6154     0.8117
A_2     C     0.4551     0.2112     0.4776
A_1     C     0.1939     0.2335     0.1573
A_3     C     0.0835     0.9118     0.4758
A_1     C     0.2244     0.6024     0.6955
A_0     C     0.5407     0.6562     0.0925
A_2     C     0.7538     0.6643     0.3596
A_3     C     0.1482     0.4459     0.1485
A_3     C     0.5663     0.5054     0.9289
A_3     C     0.6739     0.6973     0.1338
A_3     C     0.2168     0.7809     0.85
A_2     C     0.461     0.8909     0.7378
A_3     C     0.9333     0.6719     0.1482
A_3     C     0.1326     0.8999     0.7194
A_1     C     0.6859     0.1052     0.6336
A_2     C     0.7391     0.0669     0.2767
A_2     C     0.158     0.9461     0.8387
A_0     C     0.8033     0.1639     0.3161
A_3     C     0.8608     0.6352     0.3379
A_2     C     0.153     0.1759     0.7503
A_0     C     0.6795     0.2506     0.6908
A_2     C     0.5529     0.4086     0.8968
A_3     C     0.4181     0.6     0.4354
A_3     C     0.7808     0.3643     0.3456
A_2     C     0.9938     0.3099     0.2138
A_2     C     0.2513     0.025     0.4343
A_2     C     0.8764     0.5598     0.0941
A_3     C     0.56     0.912     0.8298
A_0     C     0.3591     0.1391     0.6561
A_1     C     0.4115     0.0272     0.3619
A_1     C     0.7549     0.0706     0.5878
A_1     C     0.6038     0.6857     0.0477
A_3     C     0.9945     0.9504     0.1715
A_2     C     0.2527     0.5027     0.3007
A_1     C     0.9241     0.2711     0.844
A_3     C     0.0847     0.3455     0.7613
A_2     C     0.4889     0.0413     0.8461
A_0     C     0.245     0.9522     0.7591
A_0     C     0.1379     0.1903     0.2838
A_3     C     0.6485     0.1036     0.791
A_0     C     0.2058     0.5728     0.2363
A_0     C     0.8179     0.0919     0.0604
A_0     C     0.4996     0.6288     0.634
A_0     C     0.3342     0.4594     0.8055
A_3     C     0.4604     0.9239     0.7898
A_2     C     0.2902     0.2582     0.8183
A_1     C     0.1186     0.0365     0.4917
A_3     C     0.3784     0.3077     0.416
A_3     C     0.418     0.4982     0.8825
A_1     C     0.3082     0.6336     0.7437
A_3     C     0.7776     0.0779     0.1342
A_0     C     0.1096     0.5163     0.0967
A_1     C     0.3209     0.8101     0.4513
A_1     C     0.7723     0.815     0.8656
A_2     C     0.7289     0.7421     0.6905
A_1     C     0.0019     0.9604     0.8286
A_2     C     0.5885     0.1997     0.1909
A_2     C     0.4851     0.4513     0.0042
A_0     C     0.3853     0.7478     0.1661
A_1     C     0.5257     0.9071     0.775
A_2     C     0.4472     0.6597     0.4254
A_3     C     0.1478     0.146     0.3314
A_3     C     0.5708     0.4278     0.2212
A_1     C     0.0806     0.7927     0.8896
A_2     C     0.9188     0.8612     0.4379
A_1     C     0.2715     0.9716     0.7125
A_2     C     0.4863     0.7288     0.8063
A_2     C     0.149     0.9623     0.4457
A_2     C     0.7331     0.9649     0.3135
A_3     C     0.2403     0.4582     0.9213
A_2     C     0.4041     0.0042     0.0338
A_1     C     0.7225     0.2195     0.0102
A_1     C     0.8255     0.7162     0.5251
A_1     C     0.6619     0.0734     0.2095
A_1     C     0.3677     0.718     0.8678
A_3     C     0.0318     0.8066     0.9634
A_3     C     0.9322     0.6354     0.4785
A_3     C     0.0392     0.0493     0.9792
A_0     C     0.0059     0.6865     0.972
A_1     C     0.2036     0.0146     0.2996
A_3     C     0.6052     0.3811     0.9425
A_3     C     0.6961     0.7514     0.9438
A_0     C     0.7246     0.404     0.3882
A_0     C     0.1897     0.8296     0.478
A_1     C     0.8719     0.1644     0.8627
A_2     C     0.3083     0.3579     0.2988
A_0     C     0.241     0.1329     0.2629
A_1     C     0.1729     0.8676     0.7315
A_1     C     0.3779     0.3708     0.4084
A_1     C     0.7908     0.385     0.6514
A_1     C     0.1312     0.9265     0.0043
A_2     C     0.49     0.9582     0.8882
A_3     C     0.9402     0.9026     0.5412
A_3     C     0.0305     0.7749     0.6281
A_3     C     0.5456     0.5131     0.6831
A_2     C     0.2596     0.3769     0.1235
A_0     C     0.144     0.0361     0.1575
A_3     C     0.4886     0.0487     0.2638
A_2     C     0.1569     0.6151     0.6088
A_0     C     0.2608     0.7439     0.5916
A_1     C     0.2161     0.9014     0.2299
A_2     C     0.8876     0.5034     0.851
A_1     C     0.7611     0.2229     0.2619
A_1     C     0.1733     0.7436     0.5499
A_3     C     0.2771     0.3054     0.4264
A_0     C     0.9501     0.9243     0.5118
A_3     C     0.7522     0.8958     0.8265
A_0     C     0.1094     0.9117     0.9735
A_2     C     0.6589     0.5476     0.2695
A_1     C     0.0792     0.8434     0.5007
A_1     C     0.5126     0.1382     0.0227
A_0     C     0.9087     0.58     0.3052
A_2     C     0.9449     0.9989     0.7646
A_2     C     0.2414     0.0948     0.1192
A_0     C     0.1517     0.269     0.5163
A_0     C     0.6521     0.4697     0.9385
A_0     C     0.8467     0.1779     0.0233
A_2     C     0.6489     0.9722     0.6282
A_2     C     0.5375     0.2384     0.5487
A_2     C     0.7377     0.2384     0.9086
A_2     C     0.2144     0.7987     0.8887
A_1     C     0.0821     0.0398     0.7188
A_3     C     0.016     0.4175     0.8691
A_2     C     0.4238     0.1092     0.5368
A_0     C     0.2202     0.9912     0.5657
A_3     C     0.9962     0.5527     0.0264
A_1     C     0.634     0.8551     0.5852
A_0     C     0.8348     0.1081     0.9515
A_3     C     0.0643     0.6656     0.5114
A_2     C     0.8656     0.8813     0.1204
A_3     C     0.5569     0.6747     0.521
A_2     C     0.0085     0.2876     0.6188
A_0     C     0.1773     0.752     0.8887
A_1     C     0.6341     0.8552     0.2134
A_0     C     0.6018     0.6459     0.9937
A_2     C     0.0047     0.5481     0.9812
A_3     C     0.1789     0.358     0.355
A_3     C     0.9386     0.8199     0.6332
A_0     C     0.8416     0.128     0.6915
A_0     C     0.5331     0.1562     0.0548
A_3     C     0.5737     0.3044     0.6267
A_0     C     0.4594     0.4815     0.4622
A_2     C     0.6825     0.7789     0.3212
A_0     C     0.1428     0.8994     0.1655
A_2     C     0.0188     0.7143     0.8398
A_2     C     0.0159     0.7034     0.0447
A_0     C     0.4725     0.9538     0.2496
A_1     C     0.6692     0.0126     0.3305
A_0     C     0.8003     0.5397     0.4155
A_0     C     0.2945     0.2764     0.0033
A_1     C     0.2371     0.7842     0.4682
A_3     C     0.682     0.5411     0.5095
A_0     C     0.4933     0.4717     0.5927
A_1     C     0.8119     0.8891     0.688
A_0     C     0.5969     0.9     0.8208
A_0     C     0.1624     0.04     0.2662
A_2     C     0.8529     0.3997     0.2287
A_1     C     0.7147     0.9501     0.8372
A_1     C     0.4208     0.936     0.0534
A_1     C     0.2607     0.2838     0.9748
A_3     C     0.9003     0.6641     0.7402
A_0     C     0.8633     0.3236     0.8858
A_2     C     0.0791     0.3614     0.6884
A_1     C     0.9209     0.8002     0.2767
A_0     C     0.6481     0.3618     0.8045
A_2     C     0.5373     0.6085     0.7116
A_3     C     0.9316     0.3883     0.4075
A_3     C     0.4139     0.2438     0.9035
A_0     C     0.7818     0.2014     0.3132
A_0     C     0.0352     0.3415     0.69
A_2     C     0.877     0.1254     0.4716
A_1     C     0.2341     0.4337     0.7146
A_0     C     0.0945     0.7512     0.8629
A_1     C     0.1157     0.6203     0.9146
A_3     C     0.6791     0.5859     0.3056
A_0     C     0.1451     0.7942     0.9306
A_0     C     0.8914     0.5552     0.5624
A_2     C     0.3755     0.0096     0.7628
A_1     C     0.7301     0.6583     0.9907
A_3     C     0.3176     0.2122     0.1137
A_2     C     0.3616     0.8573     0.4794
A_1     C     0.2167     0.8854     0.3216
A_3     C     0.2897     0.3468     0.772
A_0     C     0.1598     0.7471     0.4949
A_3     C     0.6583     0.8865     0.7448
A_2     C     0.4971     0.8015     0.0431
A_2     C     0.8799     0.1763     0.4663
A_2     C     0.3668     0.7696     0.1465
A_1     C     0.2439     0.5839     0.946
A_3     C     0.7105     0.5529     0.2685
A_1     C     0.1486     0.4826     0.8245
A_2     C     0.365     0.9436     0.8903
A_3     C     0.3553     0.5193     0.9804
A_3     C     0.2037     0.2349     0.0778
A_1     C     0.3708     0.4046     0.1919
A_2     C     0.039     0.9386     0.1944
A_1     C     0.0827     0.2567     0.79
A_0     C     0.5499     0.2621     0.0057
A_2     C     0.3139     0.5612     0.2553
A_1     C     0.5314     0.5273     0.9333
A_1     C     0.1581     0.1212     0.0733
A_3     C     0.2582     0.0071     0.4801
A_0     C     0.9343     0.4119     0.9156
A_3     C     0.4295     0.68     0.8814
A_2     C     0.915     0.0882     0.9303
A_0     C     0.0342     0.2369     0.5301
A_3     C     0.7022     0.3815     0.4145
A_0     C     0.6847     0.2999     0.4732
A_2     C     0.0426     0.6136     0.4118
A_3     C     0.5631     0.862     0.2157
A_0     C     0.1823     0.8469     0.8844
A_1     C     0.5324     0.9956     0.9593
A_2     C     0.6096     0.9307     0.566
A_1     C     0.4335     0.148     0.973
A_2     C     0.9764     0.7456     0.6318
A_1     C     0.1723     0.5074     0.9459
A_2     C     0.3359     0.6362     0.3869
A_0     C     0.1793     0.7874     0.6968
A_2     C     0.9917     0.2087     0.5878
A_0     C     0.8836     0.768     0.7919
A_3     C     0.868     0.7044     0.6943
A_0     C     0.9582     0.4703     0.9572
A_1     C     0.1     0.304     0.5409
A_0     C     0.1284     0.2586     0.0177
A_1     C     0.978     0.6829     0.4499
A_1     C     0.2957     0.6059     0.6369
A_3     C     0.608     0.9646     0.7537
A_0     C     0.0691     0.1664     0.2384
A_1     C     0.8529     0.7641     0.402
A_3     C     0.5289     0.0711     0.1322
A_2     C     0.9097     0.0976     0.0754
A_2     C     0.4879     0.413     0.7006
A_1     C     0.968     0.8169     0.5084
A_2     C     0.2586     0.3809     0.0803
A_3     C     0.4362     0.2058     0.5283
A_0     C     0.5995     0.5606     0.3849
A_2     C     0.4567     0.5882     0.9292
A_2     C     0.7629     0.9163     0.0935
A_1     C     0.0596     0.6958     0.4305
A_3     C     0.0971     0.4305     0.3527
A_2     C     0.5612     0.9833     0.1524
A_3     C     0.5655     0.3772     0.8325
A_0     C     0.9738     0.5361     0.3708
A_3     C     0.7852     0.6012     0.4054
A_3     C     0.3513     0.5175     0.0093
A_0     C     0.7108     0.505     0.4002
A_0     C     0.8206     0.3421     0.4006
A_2     C     0.059     0.7764     0.7524
A_3     C     0.0493     0.0466     0.2057
A_3     C     0.9598     0.6772     0.2944
A_2     C     0.7253     0.9329     0.0822
A_2     C     0.0095     0.9521     0.6725
A_0     C     0.892     0.448     0.2904
A_2     C     0.0649     0.5944     0.1549
A_2     C     0.3906     0.7073     0.4679
A_1     C     0.4147     0.4091     0.7288
A_1     C     0.9314     0.4485     0.6924
A_3     C     0.6698     0.8441     0.8968
A_0     C     0.245     0.5352     0.679
A_0     C     0.5829     0.8075     0.6462
A_3     C     0.0958     0.2665     0.9729
A_1     C     0.4958     0.0149     0.8504
A_3     C     0.2226     0.612     0.9354
A_2     C     0.9998     0.8455     0.3563
A_2     C     0.9369     0.9169     0.2353
A_3     C     0.7827     0.132     0.2452
A_0     C     0.8273     0.7537     0.5638
A_3     C     0.0603     0.6571     0.8743
A_3     C     0.4774     0.435     0.457
A_0     C     0.9782     0.5307     0.1844
A_0     C     0.3312     0.1377     0.9139
A_3     C     0.6132     0.4369     0.0979
A_0     C     0.8638     0.1621     0.2356
A_2     C     0.0065     0.8204     0.562
A_3     C     0.0245     0.2622     0.7849
A_2     C     0.6172     0.2423     0.3949
A_2     C     0.2383     0.8498     0.022
A_1     C     0.6541     0.0948     0.3218
A_3     C     0.1042     0.0342     0.2956
A_2     C     0.2404     0.2528     0.8529
A_2     C     0.2641     0.3909     0.0502
A_2     C     0.134     0.329     0.3976
A_2     C     0.4823     0.7701     0.2945
A_2     C     0.6991     0.7539     0.2491
A_2     C     0.1365     0.1635     0.6799
A_2     C     0.6113     0.7914     0.9523
A_2     C     0.928     0.2021     0.7081
A_2     C     0.2795     0.0617     0.5702
A_2     C     0.4206     0.6694     0.9796
A_2     C     0.198     0.5604     0.4818
A_2     C     0.037     0.576     0.2135
A_2     C     0.1774     0.4923     0.9379
A_2     C     0.7574     0.7991     0.8018
A_2     C     0.8098     0.7692     0.435
A_2     C     0.2696     0.7727     0.0445
A_2     C     0.7829     0.2294     0.0167
A_2     C     0.5929     0.8918     0.4216
A_2     C     0.5831     0.0399     0.8487
A_2     C     0.3742     0.7828     0.0157
A_2     C     0.4475     0.1357     0.9527
A_2     C     0.6314     0.4114     0.2171
A_2     C     0.4361     0.7016     0.5647
A_2     C     0.4986     0.7803     0.8535
A_2     C     0.9957     0.1002     0.699
A_2     C     0.7684     0.5265     0.0651
A_2     C     0.8092     0.3255     0.1706
A_2     C     0.3581     0.4858     0.6279
A_2     C     0.8697     0.3691     0.3201
A_2     C     0.3033     0.7619     0.2377
A_2     C     0.7276     0.1283     0.1625
A_2     C     0.5126     0.2921     0.5694
A_2     C     0.9884     0.7886     0.5013
A_2     C     0.765     0.2545     0.7995
A_2     C     0.9261     0.5795     0.2565
A_2     C     0.7014     0.8543     0.0846
A_2     C     0.2253     0.1866     0.7467
A_2     C     0.1231     0.8543     0.8374
A_2     C     0.1954     0.2683     0.2376
A_2     C     0.2043     0.6431     0.2416
A_2     C     0.7268     0.9082     0.3194
A_2     C     0.2059     0.2732     0.4588
A_2     C     0.8351     0.1509     0.0568
A_2     C     0.8716     0.8556     0.0426
A_2     C     0.127     0.4605     0.1807
A_2     C     0.5467     0.3666     0.5088
A_2     C     0.5988     0.7779     0.3455
A_2     C     0.2895     0.6209     0.291
A_2     C     0.8973     0.0202     0.1425
A_2     C     0.6835     0.8907     0.2115
A_2     C     0.0652     0.7389     0.7054
A_2     C     0.2609     0.9469     0.6828
A_2     C     0.3027     0.2999     0.2569
A_2     C     0.7879     0.8476     0.9616
A_2     C     0.8767     0.2312     0.7196
A_2     C     0.8774     0.5386     0.8544
A_2     C     0.7288     0.5893     0.219
A_2     C     0.8489     0.0217     0.7559
A_2     C     0.3601     0.1915     0.0998
A_2     C     0.2649     0.5497     0.2745
A_2     C     0.5351     0.6861     0.0582
A_2     C     0.4959     0.9704     0.6007
A_2     C     0.0349     0.6819     0.8812
A_2     C     0.1548     0.0689     0.3392
A_2     C     0.9419     0.8057     0.8248
A_2     C     0.9028     0.8368     0.7677
A_2     C     0.1858     0.6545     0.7873
A_2     C     0.8951     0.1664     0.3371
A_2     C     0.9345     0.6124     0.8569
A_2     C     0.0549     0.5506     0.3591
A_2     C     0.3678     0.3996     0.8858
A_2     C     0.8298     0.2376     0.4835
A_2     C     0.0158     0.1873     0.6506
A_2     C     0.2865     0.4427     0.6142
A_2     C     0.7533     0.7884     0.7001
A_2     C     0.2327     0.3748     0.6909
A_2     C     0.0085     0.7941     0.9588
A_2     C     0.0697     0.9363     0.1256
A_2     C     0.5973     0.9131     0.1713
A_2     C     0.9078     0.2902     0.6983
A_2     C     0.2258     0.6943     0.2909
A_2     C     0.1559     0.2365     0.8712
A_2     C     0.9893     0.643     0.9619
A_2     C     0.1441     0.8854     0.8427
A_2     C     0.0427     0.3171     0.3551
A_2     C     0.2246     0.588     0.6056
A_2     C     0.8773     0.3914     0.4979
A_2     C     0.1482     0.69     0.7091
A_2     C     0.8293     0.0068     0.3834
A_2     C     0.5243     0.1333     0.1687
A_2     C     0.4675     0.4337     0.4118
A_2     C     0.4037     0.7554     0.4457
A_2     C     0.6795     0.2032     0.1223
A_2     C     0.2668     0.2256     0.4499
A_2     C     0.9864     0.8832     0.799
A_2     C     0.9508     0.3136     0.4142
A_2     C     0.1604     0.2884     0.8626
A_2     C     0.4004     0.3182     0.2753
A_2     C     0.2348     0.817     0.8745
A_2     C     0.3256     0.1268     0.8432
A_2     C     0.6474     0.1876     0.1817
A_2     C     0.8575     0.1061     0.5204
A_2     C     0.8467     0.7442     0.1581
A_2     C     0.0435     0.8802     0.6599
A_2     C     0.2419     0.0949     0.172
A_2     C     0.8845     0.3267     0.2477
A_2     C     0.0212     0.2164     0.5882
A_2     C     0.7627     0.8612     0.2143
A_2     C     0.3158     0.129     0.5277
A_2     C     0.7499     0.0539     0.641
A_2     C     0.7308     0.0286     0.952
A_2     C     0.0224     0.4674     0.7195
A_2     C     0.2996     0.8828     0.8096
A_2     C     0.3753     0.5159     0.4742
A_2     C     0.2599     0.0616     0.432
A_2     C     0.3088     0.7403     0.4256
A_2     C     0.4613     0.3132     0.3144
A_2     C     0.7455     0.439     0.0973
A_2     C     0.2749     0.1239     0.8044
A_2     C     0.7563     0.533     0.9138
A_2     C     0.1638     0.981     0.7137
A_2     C     0.3552     0.1625     0.4987
A_2     C     0.3945     0.5636     0.1279
A_2     C     0.2276     0.139     0.2887
A_2     C     0.2281     0.803     0.8376
A_2     C     0.5692     0.9751     0.0101
A_2     C     0.9718     0.869     0.0809
A_2     C     0.1754     0.9393     0.155
A_2     C     0.5671     0.4647     0.0248
A_2     C     0.6308     0.4059     0.0588
A_2     C     0.7936     0.4195     0.2681
A_2     C     0.3098     0.0324     0.0674
A_2     C     0.688     0.3595     0.4574
A_2     C     0.9625     0.9689     0.4619
A_2     C     0.9415     0.3552     0.4434
A_2     C     0.3127     0.9303     0.3655
A_2     C     0.0739     0.9157     0.4642
A_2     C     0.6423     0.6481     0.2701
A_2     C     0.8697     0.2865     0.2351
A_2     C     0.0482     0.8744     0.7349
A_2     C     0.4284     0.6721     0.1204
A_2     C     0.8765     0.4232     0.2587
A_2     C     0.5998     0.7276     0.0641
A_2     C     0.6741     0.4009     0.4097
A_2     C     0.7209     0.1061     0.6176
A_2     C     0.4564     0.2847     0.5297
A_2     C     0.2068     0.1388     0.111
A_2     C     0.5897     0.8665     0.5492
A_2     C     0.5567     0.2045     0.3352
A_2     C     0.9486     0.9041     0.849
A_2     C     0.2551     0.9733     0.0118
A_2     C     0.8783     0.4637     0.1701
A_2     C     0.3231     0.2107     0.9331
A_2     C     0.7366     0.7789     0.1063
A_2     C     0.7413     0.9307     0.0004
A_2     C     0.4396     0.1289     0.6644
A_2     C     0.4567     0.094     0.9919
A_2     C     0.6128     0.303     0.2531
A_2     C     0.874     0.1123     0.0056
A_2     C     0.7465     0.2505     0.9057
A_2     C     0.9137     0.7925     0.2773
A_2     C     0.6985     0.7752     0.6971
A_2     C     0.6193     0.8045     0.6618
A_2     C     0.7844     0.9863     0.5409
A_2     C     0.3249     0.0699     0.996
A_2     C     0.9006     0.9029     0.134
A_2     C     0.0175     0.9685     0.0621
A_2     C     0.4527     0.0732     0.1118
A_2     C     0.9517     0.9637     0.0711
A_2     C     0.5109     0.2916     0.5994
A_2     C     0.1591     0.2474     0.2966
A_2     C     0.8921     0.5562     0.6559
A_2     C     0.0948     0.8957     0.1884
A_2     C     0.6962     0.0498     0.5418
A_2     C     0.8545     0.5598     0.4501
A_2     C     0.6631     0.0207     0.7017
A_2     C     0.0086     0.0732     0.5144
A_2     C     0.4627     0.1335     0.8115
A_2     C     0.1541     0.936     0.7246
A_2     C     0.2772     0.4059     0.4107
A_2     C     0.4703     0.3266     0.897
A_2     C     0.0616     0.3416     0.7122
A_2     C     0.1875     0.7212     0.2269
A_2     C     0.1057     0.8091     0.6555
A_2     C     0.5306     0.9166     0.4241
A_2     C     0.0745     0.6574     0.4219
A_2     C     0.2227     0.0731     0.5197
A_2     C     0.8877     0.8826     0.8448
A_2     C     0.3776     0.806     0.0085
A_2     C     0.0611     0.7698     0.9077
A_2     C     0.5329     0.7614     0.513
A_2     C     0.2181     0.1443     0.327
A_2     C     0.4157     0.8653     0.7291
A_2     C     0.5635     0.2816     0.2711
A_2     C     0.9734     0.4474     0.1975
A_2     C     0.1901     0.6265     0.0643
A_2     C     0.9298     0.0922     0.249
A_2     C     0.489     0.8084     0.7632
A_2     C     0.9347     0.0564     0.9706
A_2     C     0.0594     0.3211     0.2358
A_2     C     0.5407     0.3543     0.5223
A_2     C     0.1506     0.0714     0.199
A_2     C     0.2329     0.4957     0.9745
A_2     C     0.2081     0.3752     0.8709
A_2     C     0.7691     0.546     0.1767
A_2     C     0.9089     0.9871     0.0437
A_2     C     0.9561     0.8345     0.5978
A_2     C     0.8827     0.8699     0.049
A_2     C     0.0685     0.4887     0.8154
A_2     C     0.6858     0.0829     0.4739
A_2     C     0.262     0.6305     0.7528
A_2     C     0.4292     0.0246     0.5869
A_2     C     0.7213     0.4141     0.5958
A_2     C     0.0792     0.0157     0.0388
A_2     C     0.5262     0.7556     0.0429
A_2     C     0.0509     0.0793     0.8935
A_2     C     0.2677     0.1083     0.6076
A_2     C     0.3304     0.8131     0.8033
A_2     C     0.1512     0.5883     0.3844
A_2     C     0.0505     0.6326     0.9336
A_2     C     0.9336     0.8703     0.0812
A_2     C     0.2885     0.1906     0.3761
A_2     C     0.8186     0.6894     0.9765
A_2     C     0.4764     0.8576     0.2553
A_2     C     0.8922     0.5643     0.3272
A_2     C     0.9534     0.3258     0.8387
A_2     C     0.992     0.361     0.7886
A_2     C     0.7737     0.081     0.4568
A_2     C     0.0373     0.2007     0.9609
A_2     C     0.0867     0.9326     0.2351
A_2     C     0.8048     0.3713     0.1682
A_2     C     0.9526     0.5011     0.748
A_2     C     0.8213     0.213     0.339
A_2     C     0.8856     0.3484     0.5341
A_2     C     0.0155     0.1132     0.9545
A_2     C     0.5622     0.263     0.6509
A_2     C     0.4731     0.9443     0.363
A_2     C     0.9588     0.6819     0.8776
A_2     C     0.8287     0.4139     0.8577
A_2     C     0.7286     0.4798     0.13
A_2     C     0.9691     0.3684     0.2359
A_2     C     0.0132     0.9243     0.428
A_2     C     0.1129     0.2352     0.6638
A_2     C     0.0994     0.8256     0.6115
A_2     C     0.1901     0.8973     0.2924
A_2     C     0.6152     0.0285     0.1405
A_2     C     0.0877     0.9076     0.077
A_2     C     0.0519     0.5247     0.3194
A_2     C     0.6644     0.7614     0.3219
A_2     C     0.1801     0.3914     0.1161
A_2     C     0.1143     0.287     0.2481
A_2     C     0.4757     0.8147     0.9128
A_2     C     0.9694     0.1209     0.2011
A_2     C     0.8198     0.2548     0.6282
A_2     C     0.7585     0.8079     0.6395
A_2     C     0.2755     0.5846     0.5374
A_2     C     0.189     0.7348     0.2869
A_2     C     0.6532     0.3993     0.5108
A_2     C     0.3405     0.9068     0.9089
A_2     C     0.3612     0.2724     0.9209
A_2     C     0.3578     0.1514     0.2248
A_2     C     0.4634     0.279     0.0144
A_2     C     0.7369     0.5591     0.4667
A_2     C     0.7423     0.4249     0.4672
A_2     C     0.4711     0.9709     0.6888
A_2     C     0.5246     0.5869     0.5871
A_2     C     0.2063     0.3396     0.9093
A_2     C     0.1511     0.1335     0.4057
A_2     C     0.3296     0.2231     0.7785
A_2     C     0.9265     0.4963     0.5755
A_2     C     0.6414     0.2091     0.1654
A_2     C     0.3654     0.1974     0.0966
A_2     C     0.9488     0.0717     0.7618
A_2     C     0.6856     0.7253     0.6067
A_2     C     0.319     0.4053     0.2047
A_2     C     0.7765     0.101     0.9837
A_2     C     0.9674     0.0015     0.816
A_2     C     0.2048     0.8158     0.6714
A_2     C     0.2034     0.2391     0.1017
A_2     C     0.4224     0.2545     0.3448
A_2     C     0.7118     0.9747     0.1973
A_2     C     0.3918     0.5546     0.53
A_2     C     0.8987     0.614     0.8898
A_2     C     0.9928     0.0851     0.0087
A_2     C     0.971     0.7952     0.2371
A_2     C     0.0921     0.6205     0.8408
A_2     C     0.0576     0.5091     0.8555
A_2     C     0.2964     0.7804     0.5877
A_2     C     0.6749     0.2346     0.6538
A_2     C     0.4725     0.694     0.6951
A_2     C     0.1932     0.8579     0.6561
A_2     C     0.1861     0.2822     0.1199
A_2     C     0.9556     0.7039     0.0397
A_2     C     0.9954     0.2991     0.5572
A_2     C     0.7487     0.193     0.3965
A_2     C     0.5383     0.2508     0.0442
A_2     C     0.3708     0.2723     0.3607
A_2     C     0.816     0.5601     0.7056
A_2     C     0.1656     0.2581     0.7951
A_2     C     0.0029     0.7793     0.2589
A_2     C     0.3973     0.5949     0.6495
A_2     C     0.6215     0.9053     0.1753
A_2     C     0.948     0.1187     0.5598
A_2     C     0.74     0.9821     0.6339
A_2     C     0.6641     0.7142     0.5375
A_2     C     0.289     0.5173     0.177
A_2     C     0.0163     0.2464     0.5318
A_2     C     0.7279     0.2863     0.0746
A_2     C     0.8917     0.7917     0.5124
A_2     C     0.7443     0.6257     0.1717
A_2     C     0.7438     0.8778     0.8108
A_2     C     0.3109     0.2547     0.8186
A_2     C     0.4983     0.0397     0.9082
A_2     C     0.8169     0.1703     0.2726
A_2     C     0.0661     0.6003     0.1922
A_2     C     0.9396     0.6336     0.3547
A_2     C     0.5748     0.1682     0.6797
A_2     C     0.324     0.2469     0.0138
A_2     C     0.2461     0.4898     0.1376
A_2     C     0.7973     0.7662     0.3494
A_2     C     0.6938     0.2484     0.0968
A_2     C     0.1787     0.5341     0.3975
A_2     C     0.2939     0.3177     0.2004
A_2     C     0.3807     0.1245     0.5777
A_2     C     0.7338     0.4802     0.6792
A_2     C     0.4296     0.1887     0.0424
A_2     C     0.7358     0.9613     0.7887
A_2     C     0.2161     0.9022     0.7084
A_2     C     0.1881     0.4739     0.9556
A_2     C     0.3067     0.1373     0.2797
A_2     C     0.1581     0.1256     0.1141
A_2     C     0.9316     0.2891     0.0412
A_2     C     0.8272     0.8043     0.9579
A_2     C     0.0883     0.0303     0.5396
A_2     C     0.759     0.9559     0.9645
A_2     C     0.0732     0.9243     0.6155
A_2     C     0.9211     0.7129     0.5424
A_2     C     0.7672     0.78     0.8959
A_2     C     0.3571     0.8618     0.5502
A_2     C     0.9032     0.7071     0.363
A_2     C     0.9241     0.9159     0.8293
A_2     C     0.5879     0.8819     0.1296
A_2     C     0.048     0.4898     0.4892
A_2     C     0.0621     0.7462     0.2804
A_2     C     0.783     0.9433     0.9349
A_2     C     0.251     0.5894     0.9642
A_2     C     0.9274     0.4946     0.9543
A_2     C     0.9833     0.4946     0.1128
A_2     C     0.3072     0.3097     0.9135
A_2     C     0.1466     0.4092     0.4717
A_2     C     0.5499     0.7959     0.3344
A_2     C     0.6925     0.6832     0.267
A_2     C     0.1826     0.6499     0.0989
A_2     C     0.7373     0.7908     0.8281
A_2     C     0.4971     0.8819     0.7723
A_2     C     0.1663     0.1802     0.1754
A_2     C     0.9121     0.3083     0.123
A_2     C     0.421     0.5468     0.211
A_2     C     0.4077     0.5726     0.9211
A_2     C     0.1969     0.3973     0.7092
A_2     C     0.8935     0.2563     0.3582
A_2     C     0.7776     0.0124     0.3798
A_2     C     0.7098     0.6924     0.8232
A_2     C     0.1488     0.0363     0.3278
A_2     C     0.6244     0.7304     0.1131
A_2     C     0.743     0.6622     0.6963
A_2     C     0.5056     0.2756     0.2703
A_2     C     0.9788     0.58     0.5133
A_2     C     0.1953     0.5962     0.024
A_2     C     0.0659     0.7779     0.7981
A_2     C     0.5904     0.3573     0.049
A_2     C     0.9186     0.4103     0.2801
A_2     C     0.6418     0.861     0.4865
A_2     C     0.2528     0.3564     0.0247
A_2     C     0.7608     0.4491     0.4424
A_2     C     0.5281     0.5905     0.2755
A_2     C     0.7291     0.4034     0.2355
A_2     C     0.9297     0.491     0.3674
A_2     C     0.5946     0.3632     0.8071
A_2     C     0.1041     0.805     0.2752
A_2     C     0.6145     0.9195     0.9813
A_2     C     0.1855     0.7297     0.0326
A_2     C     0.8875     0.9102     0.1955
