MAT-83

loop_
_symmetry_equiv_pos_as_xyz
  x,y,z
_cell_length_a          26.6967
_cell_length_b          44.3602
_cell_length_c          35.6451
_cell_angle_alpha       90.0000
_cell_angle_beta        90.0000
_cell_angle_gamma       90.0000
loop_
_atom_site_label
_atom_site_type_symbol
_atom_site_fract_x
_atom_site_fract_y
_atom_site_fract_z
A_1     C     0.6696     0.4538     0.784
A_3     C     0.1913     0.7191     0.8754
A_1     C     0.442     0.084     0.6802
A_2     C     0.5933     0.7392     0.6311
A_1     C     0.9797     0.5211     0.7419
A_2     C     0.753     0.2116     0.1388
A_0     C     0.7784     0.8882     0.0893
A_0     C     0.3385     0.1509     0.2451
A_0     C     0.0149     0.6284     0.4233
A_3     C     0.8901     0.0232     0.4521
A_1     C     0.1114     0.8632     0.9338
A_2     C     0.7596     0.8636     0.8561
A_1     C     0.3243     0.1927     0.0374
A_1     C     0.7911     0.7751     0.0842
A_1     C     0.7698     0.8538     0.2178
A_3     C     0.7656     0.7254     0.0773
A_1     C     0.8699     0.7618     0.507
A_0     C     0.4569     0.5295     0.4812
A_2     C     0.6542     0.7708     0.7602
A_1     C     0.3322     0.621     0.4144
A_2     C     0.1723     0.1084     0.544
A_3     C     0.1065     0.4397     0.4696
A_1     C     0.6462     0.9567     0.7833
A_3     C     0.2487     0.6943     0.2501
A_2     C     0.4806     0.593     0.1431
A_2     C     0.0871     0.8226     0.0614
A_2     C     0.5564     0.7562     0.4079
A_0     C     0.5849     0.42     0.3333
A_0     C     0.9047     0.7594     0.5921
A_2     C     0.5109     0.9163     0.7088
A_1     C     0.1313     0.9539     0.4827
A_0     C     0.303     0.1597     0.5061
A_3     C     0.9163     0.855     0.8182
A_1     C     0.5227     0.1569     0.319
A_3     C     0.626     0.174     0.2728
A_1     C     0.6015     0.4707     0.3118
A_2     C     0.2068     0.0534     0.6596
A_3     C     0.1837     0.3143     0.7025
A_1     C     0.9543     0.9911     0.2463
A_0     C     0.2018     0.848     0.92
A_0     C     0.3432     0.8499     0.6492
A_1     C     0.7851     0.8376     0.9988
A_1     C     0.1644     0.1492     0.8549
A_0     C     0.4201     0.8012     0.5235
A_0     C     0.9161     0.1739     0.1024
A_2     C     0.6513     0.7327     0.6711
A_3     C     0.961     0.2079     0.5321
A_3     C     0.277     0.1102     0.1774
A_2     C     0.9377     0.1124     0.865
A_1     C     0.797     0.5906     0.8187
A_3     C     0.3991     0.0604     0.0657
A_1     C     0.8485     0.9544     0.994
A_2     C     0.8762     0.6225     0.0865
A_1     C     0.7308     0.2514     0.2914
A_0     C     0.079     0.7205     0.5818
A_1     C     0.8544     0.8465     0.0185
A_3     C     0.6327     0.2207     0.1739
A_0     C     0.5555     0.4557     0.4248
A_0     C     0.4676     0.8291     0.2236
A_3     C     0.6039     0.1689     0.3641
A_0     C     0.4242     0.6153     0.1677
A_2     C     0.6706     0.4957     0.8748
A_3     C     0.3389     0.401     0.8345
A_1     C     0.677     0.4534     0.7086
A_3     C     0.5424     0.035     0.0711
A_3     C     0.1313     0.4146     0.8954
A_2     C     0.1005     0.8236     0.8255
A_0     C     0.7863     0.6018     0.766
A_3     C     0.0533     0.6778     0.351
A_1     C     0.4617     0.1348     0.9109
A_0     C     0.8491     0.4843     0.5775
A_2     C     0.669     0.6113     0.4243
A_2     C     0.8392     0.8816     0.1902
A_1     C     0.7     0.3289     0.8067
A_3     C     0.4118     0.9133     0.756
A_0     C     0.9866     0.5876     0.9662
A_2     C     0.8458     0.3578     0.1222
A_2     C     0.1528     0.9659     0.9795
A_3     C     0.0043     0.733     0.2829
A_3     C     0.0919     0.5282     0.4426
A_3     C     0.5399     0.5907     0.9306
A_0     C     0.8296     0.5212     0.9668
A_0     C     0.5263     0.8741     0.4907
A_3     C     0.2676     0.9477     0.602
A_1     C     0.394     0.7863     0.0959
A_0     C     0.3611     0.9887     0.9595
A_1     C     0.201     0.8477     0.8449
A_1     C     0.9606     0.0049     0.5419
A_2     C     0.979     0.1747     0.7817
A_1     C     0.0017     0.1184     0.8671
A_2     C     0.2645     0.3987     0.0724
A_1     C     0.0983     0.8912     0.935
A_2     C     0.0562     0.3926     0.6221
A_3     C     0.8198     0.9163     0.7329
A_3     C     0.0733     0.1672     0.487
A_3     C     0.6194     0.6252     0.8566
A_2     C     0.3926     0.2188     0.8712
A_2     C     0.4742     0.5377     0.0803
A_3     C     0.0026     0.8661     0.942
A_3     C     0.9696     0.9272     0.7869
A_2     C     0.7569     0.4231     0.7626
A_2     C     0.4613     0.7702     0.2909
A_1     C     0.2168     0.6124     0.2746
A_2     C     0.5764     0.7082     0.8718
A_1     C     0.4101     0.5231     0.6508
A_0     C     0.8917     0.629     0.5326
A_3     C     0.7474     0.0767     0.7162
A_3     C     0.2114     0.5606     0.6452
A_0     C     0.7088     0.7704     0.227
A_2     C     0.4982     0.7849     0.6026
A_3     C     0.8485     0.5636     0.4726
A_3     C     0.214     0.9061     0.3395
A_3     C     0.9131     0.6987     0.9054
A_1     C     0.38     0.3444     0.1847
A_1     C     0.4399     0.0491     0.9839
A_3     C     0.0588     0.1693     0.2242
A_0     C     0.7478     0.2137     0.2261
A_3     C     0.5276     0.3916     0.9332
A_1     C     0.3954     0.259     0.3636
A_3     C     0.8985     0.0635     0.5257
A_1     C     0.4082     0.3834     0.4247
A_2     C     0.1478     0.8657     0.1605
A_3     C     0.8337     0.3386     0.2127
A_3     C     0.7936     0.6882     0.4319
A_2     C     0.1705     0.8667     0.2614
A_0     C     0.1314     0.7685     0.4875
A_3     C     0.195     0.9765     0.9789
A_1     C     0.9137     0.3839     0.8695
A_3     C     0.495     0.9231     0.0456
A_1     C     0.0955     0.6252     0.0453
A_2     C     0.4084     0.1108     0.2339
A_2     C     0.4184     0.1571     0.556
A_2     C     0.214     0.7442     0.7642
A_0     C     0.4861     0.1026     0.2853
A_3     C     0.7079     0.5532     0.7866
A_2     C     0.9308     0.0045     0.0204
A_1     C     0.9613     0.47     0.0523
A_1     C     0.4658     0.6127     0.6842
A_0     C     0.7829     0.9332     0.8873
A_1     C     0.8323     0.7487     0.9801
A_3     C     0.3601     0.7521     0.1195
A_1     C     0.3748     0.0633     0.1124
A_0     C     0.9002     0.1865     0.481
A_1     C     0.9459     0.1344     0.5048
A_3     C     0.1895     0.9914     0.3631
A_3     C     0.3796     0.6334     0.4944
A_3     C     0.6638     0.5448     0.3354
A_3     C     0.5391     0.4544     0.5396
A_1     C     0.6523     0.2968     0.4619
A_2     C     0.675     0.3278     0.0697
A_1     C     0.4339     0.0839     0.2559
A_3     C     0.8723     0.0179     0.7834
A_0     C     0.2626     0.3175     0.0628
A_1     C     0.5682     0.497     0.7584
A_3     C     0.0052     0.4188     0.681
A_3     C     0.925     0.8976     0.248
A_2     C     0.9116     0.9321     0.158
A_0     C     0.6983     0.3002     0.2004
A_1     C     0.846     0.5287     0.8805
A_0     C     0.7751     0.1644     0.777
A_3     C     0.5336     0.6857     0.9836
A_0     C     0.4223     0.3066     0.1515
A_0     C     0.1259     0.1575     0.1412
A_3     C     0.915     0.3815     0.1083
A_3     C     0.5466     0.2266     0.1356
A_2     C     0.4703     0.1969     0.5902
A_2     C     0.6204     0.7404     0.7218
A_1     C     0.9185     0.2415     0.0363
A_1     C     0.8881     0.9018     0.3915
A_0     C     0.6178     0.8683     0.7982
A_0     C     0.466     0.5065     0.4057
A_2     C     0.9595     0.0751     0.4648
A_2     C     0.2645     0.2855     0.6446
A_3     C     0.7923     0.4006     0.0372
A_2     C     0.5263     0.2955     0.6385
A_0     C     0.8481     0.9949     0.2486
A_1     C     0.1222     0.1215     0.3985
A_0     C     0.5251     0.5481     0.7629
A_1     C     0.1341     0.5942     0.3707
A_0     C     0.7499     0.7402     0.5697
A_1     C     0.1542     0.4479     0.9353
A_2     C     0.1048     0.1081     0.0766
A_3     C     0.4492     0.1349     0.3045
A_1     C     0.518     0.9437     0.815
A_2     C     0.3161     0.537     0.9499
A_2     C     0.5031     0.0455     0.1993
A_0     C     0.5321     0.2255     0.3169
A_2     C     0.4097     0.1036     0.6186
A_0     C     0.4849     0.3873     0.6534
A_0     C     0.3507     0.9126     0.0119
A_3     C     0.6897     0.9755     0.6091
A_0     C     0.7929     0.2583     0.474
A_3     C     0.2489     0.8769     0.0288
A_2     C     0.4132     0.7172     0.6233
A_2     C     0.4867     0.115     0.0533
A_3     C     0.3558     0.186     0.8556
A_2     C     0.5888     0.0602     0.6506
A_3     C     0.0427     0.5421     0.1907
A_0     C     0.6247     0.9024     0.2376
A_3     C     0.8582     0.9135     0.5501
A_2     C     0.7767     0.7748     0.8575
A_0     C     0.939     0.0685     0.8697
A_0     C     0.8653     0.1036     0.6779
A_2     C     0.5836     0.2614     0.9777
A_1     C     0.1638     0.4773     0.1604
A_3     C     0.0629     0.1905     0.2938
A_1     C     0.437     0.8945     0.528
A_1     C     0.7239     0.7254     0.0655
A_3     C     0.1716     0.5879     0.7803
A_2     C     0.3074     0.7952     0.3285
A_0     C     0.0239     0.8311     0.4842
A_3     C     0.5165     0.015     0.8066
A_2     C     0.4695     0.2022     0.8985
A_0     C     0.141     0.018     0.6809
A_2     C     0.0107     0.0639     0.7032
A_3     C     0.2529     0.5554     0.7075
A_0     C     0.2793     0.555     0.2454
A_1     C     0.1028     0.1091     0.6993
A_3     C     0.4598     0.3312     0.9271
A_3     C     0.5702     0.2678     0.3519
A_2     C     0.6218     0.1547     0.0543
A_3     C     0.6764     0.3847     0.5368
A_3     C     0.1898     0.2222     0.7514
A_3     C     0.5137     0.242     0.9038
A_3     C     0.1819     0.7064     0.5754
A_3     C     0.2508     0.9784     0.5869
A_1     C     0.2532     0.489     0.4399
A_1     C     0.7436     0.9916     0.7866
A_3     C     0.3547     0.0673     0.9377
A_1     C     0.5254     0.3213     0.1682
A_1     C     0.0794     0.4275     0.8472
A_3     C     0.6781     0.5807     0.538
A_0     C     0.4843     0.1203     0.2584
A_3     C     0.8607     0.866     0.6336
A_3     C     0.3999     0.7534     0.4772
A_3     C     0.2344     0.8263     0.5145
A_2     C     0.1097     0.0554     0.1989
A_0     C     0.8152     0.99     0.1592
A_0     C     0.108     0.2359     0.8969
A_3     C     0.875     0.3629     0.1899
A_3     C     0.5189     0.9152     0.6708
