MAT-26

loop_
_symmetry_equiv_pos_as_xyz
  x,y,z
_cell_length_a          42.2155
_cell_length_b          22.7704
_cell_length_c          50.9601
_cell_angle_alpha       90.0000
_cell_angle_beta        90.0000
_cell_angle_gamma       90.0000
loop_
_atom_site_label
_atom_site_type_symbol
_atom_site_fract_x
_atom_site_fract_y
_atom_site_fract_z
A_2     C     0.9214     0.7182     0.3993
A_1     C     0.005     0.3254     0.4611
A_3     C     0.0185     0.9792     0.5857
A_2     C     0.8085     0.2661     0.8454
A_3     C     0.4032     0.7732     0.6854
A_2     C     0.9522     0.6613     0.7908
A_0     C     0.7421     0.6177     0.1878
A_0     C     0.9156     0.9916     0.7827
A_3     C     0.4158     0.3978     0.6983
A_0     C     0.6833     0.1952     0.9772
A_2     C     0.681     0.6164     0.9979
A_3     C     0.5612     0.22     0.735
A_1     C     0.7566     0.4029     0.4918
A_1     C     0.2325     0.4222     0.1833
A_1     C     0.5795     0.5734     0.9092
A_3     C     0.478     0.3406     0.4555
A_3     C     0.7025     0.9616     0.043
A_3     C     0.1611     0.6892     0.0366
A_0     C     0.2807     0.8071     0.4965
A_2     C     0.9568     0.5828     0.4487
A_0     C     0.6884     0.0041     0.7488
A_0     C     0.339     0.9823     0.5421
A_3     C     0.4472     0.8436     0.393
A_2     C     0.1978     0.1636     0.483
A_2     C     0.6619     0.9751     0.6852
A_0     C     0.6555     0.299     0.4694
A_2     C     0.3487     0.2478     0.1907
A_3     C     0.7319     0.2896     0.3899
A_2     C     0.0183     0.3306     0.6486
A_2     C     0.6619     0.4559     0.576
A_0     C     0.8884     0.7992     0.4927
A_3     C     0.6084     0.9316     0.8326
A_3     C     0.1756     0.6792     0.404
A_3     C     0.7171     0.3181     0.6765
A_0     C     0.3024     0.4893     0.9817
A_2     C     0.8308     0.9591     0.3918
A_0     C     0.9526     0.9182     0.0186
A_0     C     0.0393     0.0845     0.272
A_1     C     0.4767     0.3332     0.0922
A_3     C     0.6674     0.5949     0.0086
A_1     C     0.7058     0.1069     0.1979
A_3     C     0.4806     0.2305     0.027
A_2     C     0.4614     0.3708     0.1292
A_1     C     0.958     0.3473     0.2233
A_3     C     0.7252     0.8001     0.8904
A_1     C     0.4851     0.0891     0.1125
A_1     C     0.598     0.496     0.943
A_2     C     0.5098     0.7032     0.122
A_3     C     0.9896     0.5783     0.0954
A_1     C     0.5033     0.4843     0.579
A_2     C     0.5877     0.9397     0.5357
A_2     C     0.0309     0.9041     0.5801
A_2     C     0.7562     0.9752     0.6886
A_1     C     0.2827     0.3205     0.2938
A_3     C     0.2206     0.2954     0.599
A_3     C     0.1057     0.9925     0.6913
A_3     C     0.6315     0.6597     0.752
A_1     C     0.4735     0.4275     0.5929
A_1     C     0.1434     0.155     0.7482
A_1     C     0.7359     0.6837     0.5769
A_1     C     0.9271     0.7911     0.195
A_1     C     0.7958     0.4188     0.8171
A_3     C     0.4107     0.8094     0.9527
A_3     C     0.5355     0.0063     0.6809
A_3     C     0.4753     0.5784     0.9605
A_3     C     0.7792     0.2145     0.6847
A_1     C     0.9514     0.464     0.7307
A_2     C     0.1216     0.5745     0.5691
A_1     C     0.7994     0.9827     0.6579
A_0     C     0.9692     0.8053     0.494
A_3     C     0.9609     0.9584     0.0033
A_1     C     0.03     0.8418     0.3032
A_1     C     0.8952     0.282     0.1076
A_3     C     0.9585     0.4184     0.9396
A_3     C     0.8349     0.4088     0.1494
A_2     C     0.8375     0.8333     0.7649
A_1     C     0.0656     0.8019     0.9257
A_0     C     0.9594     0.1773     0.6958
A_2     C     0.6664     0.5431     0.618
A_3     C     0.6805     0.0479     0.3047
A_0     C     0.2298     0.8896     0.165
A_3     C     0.8636     0.9549     0.0226
A_2     C     0.267     0.0691     0.6553
A_3     C     0.7474     0.8644     0.3321
A_1     C     0.7845     0.6287     0.6241
A_3     C     0.8547     0.5737     0.193
A_0     C     0.2147     0.4483     0.2909
A_1     C     0.6816     0.5862     0.5504
A_3     C     0.8434     0.4681     0.6749
A_1     C     0.4695     0.8522     0.0569
A_3     C     0.5002     0.0153     0.8628
A_3     C     0.1322     0.6288     0.7936
A_3     C     0.088     0.5459     0.7474
A_2     C     0.6461     0.7267     0.2158
A_0     C     0.6181     0.9675     0.5675
A_3     C     0.5298     0.0192     0.0381
A_3     C     0.6095     0.1717     0.5103
A_0     C     0.0222     0.5946     0.2337
A_2     C     0.3771     0.7789     0.2055
A_2     C     0.3574     0.0589     0.1389
A_2     C     0.7019     0.9543     0.375
A_2     C     0.9708     0.2036     0.8317
A_1     C     0.754     0.8372     0.4669
A_3     C     0.3582     0.3837     0.8278
A_1     C     0.4004     0.2612     0.5937
A_3     C     0.2558     0.0236     0.6076
A_0     C     0.0799     0.8841     0.5304
A_0     C     0.8092     0.9342     0.7795
A_2     C     0.1672     0.2375     0.172
A_2     C     0.1169     0.0783     0.1718
A_0     C     0.8813     0.5399     0.6051
A_1     C     0.1836     0.7643     0.1912
A_2     C     0.5711     0.9182     0.5138
A_0     C     0.3425     0.9764     0.5065
A_0     C     0.8893     0.1605     0.5791
A_2     C     0.8097     0.6058     0.5317
A_1     C     0.3069     0.6597     0.6486
A_2     C     0.0179     0.1571     0.3017
A_0     C     0.5624     0.269     0.8304
A_1     C     0.3392     0.6228     0.2856
A_3     C     0.8329     0.6549     0.6772
A_3     C     0.1107     0.3432     0.739
A_0     C     0.8408     0.8414     0.0904
A_2     C     0.4508     0.2733     0.4558
A_0     C     0.9914     0.4088     0.5198
A_2     C     0.4024     0.3643     0.2933
A_3     C     0.1528     0.04     0.5377
A_1     C     0.0069     0.933     0.2958
A_0     C     0.5005     0.1242     0.3808
A_2     C     0.3969     0.7785     0.8591
A_3     C     0.4925     0.7986     0.2718
A_1     C     0.2696     0.6806     0.4175
A_3     C     0.8067     0.7449     0.6266
A_1     C     0.3821     0.2704     0.7739
A_1     C     0.1036     0.0495     0.2406
A_0     C     0.9929     0.6115     0.8503
A_3     C     0.3755     0.4171     0.0874
A_2     C     0.5868     0.2455     0.3912
A_2     C     0.3342     0.5739     0.4435
A_0     C     0.5245     0.3663     0.9674
A_1     C     0.2566     0.1356     0.758
A_0     C     0.3681     0.3928     0.5236
A_0     C     0.2048     0.0357     0.0882
A_2     C     0.9703     0.9025     0.4506
A_3     C     0.4765     0.6477     0.2001
A_2     C     0.3932     0.0395     0.3337
A_0     C     0.7132     0.9529     0.7819
A_3     C     0.0316     0.6112     0.1402
A_3     C     0.0255     0.2443     0.3909
A_0     C     0.82     0.6172     0.1166
A_2     C     0.1054     0.8096     0.7288
A_1     C     0.5311     0.0892     0.6441
A_3     C     0.4811     0.0843     0.5774
A_3     C     0.6561     0.1335     0.9119
A_3     C     0.034     0.6785     0.8998
A_2     C     0.6685     0.259     0.0082
A_1     C     0.8067     0.9882     0.6982
A_2     C     0.208     0.1435     0.8792
A_2     C     0.1609     0.9716     0.4163
A_2     C     0.8308     0.7156     0.2204
A_3     C     0.0422     0.289     0.6394
A_0     C     0.0221     0.6805     0.9945
A_0     C     0.2041     0.9195     0.9074
A_1     C     0.5337     0.8696     0.2738
A_1     C     0.0655     0.5107     0.855
A_1     C     0.6562     0.1032     0.4257
A_2     C     0.9498     0.7598     0.3025
A_3     C     0.8755     0.5666     0.9474
A_3     C     0.4444     0.0835     0.9521
A_2     C     0.2771     0.8829     0.6058
A_0     C     0.6725     0.6362     0.9783
A_2     C     0.6341     0.0151     0.597
A_0     C     0.9359     0.7668     0.9683
A_2     C     0.9752     0.2318     0.2417
A_2     C     0.3461     0.8192     0.0776
A_1     C     0.6318     0.7902     0.0253
A_3     C     0.2937     0.7684     0.5185
A_1     C     0.6856     0.2785     0.4726
A_1     C     0.2926     0.3982     0.0098
A_1     C     0.7564     0.5715     0.614
A_3     C     0.1588     0.1855     0.1598
A_1     C     0.9601     0.1081     0.3767
A_2     C     0.4079     0.2483     0.7719
A_0     C     0.037     0.726     0.3424
A_2     C     0.1985     0.5686     0.5079
A_2     C     0.6954     0.1116     0.5264
A_2     C     0.072     0.0581     0.2637
A_0     C     0.485     0.7271     0.9845
A_1     C     0.9458     0.665     0.5848
A_0     C     0.8937     0.304     0.9825
A_2     C     0.53     0.1321     0.4741
A_0     C     0.7478     0.3117     0.0121
A_1     C     0.1194     0.303     0.3421
A_0     C     0.4014     0.617     0.82
A_0     C     0.4527     0.8656     0.2805
A_1     C     0.9982     0.2287     0.1811
A_1     C     0.8821     0.7534     0.2648
A_3     C     0.3478     0.6969     0.2557
A_3     C     0.2398     0.1446     0.1652
A_1     C     0.5274     0.4379     0.8766
A_3     C     0.3719     0.6566     0.315
A_2     C     0.3964     0.997     0.1262
A_1     C     0.9276     0.9908     0.6985
A_3     C     0.937     0.4039     0.4593
A_1     C     0.84     0.8616     0.0357
A_2     C     0.7992     0.6269     0.7563
A_1     C     0.2025     0.2699     0.7989
A_1     C     0.6582     0.0476     0.3136
A_3     C     0.0038     0.4733     0.083
A_3     C     0.7758     0.0163     0.3978
A_1     C     0.5035     0.7426     0.8099
A_3     C     0.5126     0.4766     0.0929
A_1     C     0.8188     0.2639     0.2386
A_1     C     0.4751     0.6446     0.4874
A_3     C     0.934     0.1853     0.1941
A_2     C     0.3386     0.6915     0.8355
A_3     C     0.0599     0.4074     0.4558
A_2     C     0.2596     0.9399     0.1555
A_0     C     0.6366     0.4814     0.2176
A_0     C     0.6651     0.2825     0.6092
A_0     C     0.5074     0.5016     0.8885
A_1     C     0.9172     0.4036     0.4078
A_3     C     0.2993     0.3476     0.1468
A_0     C     0.7574     0.0097     0.1488
A_0     C     0.9973     0.3565     0.3044
A_3     C     0.8821     0.6181     0.997
A_0     C     0.7412     0.2066     0.2744
A_2     C     0.4501     0.4018     0.5478
A_3     C     0.9323     0.5602     0.5073
A_2     C     0.3862     0.5222     0.8826
A_0     C     0.1969     0.9926     0.4396
A_2     C     0.7045     0.8065     0.1388
A_0     C     0.4432     0.5046     0.6151
A_3     C     0.5659     0.5279     0.9477
A_2     C     0.5847     0.9914     0.8423
A_2     C     0.3764     0.1703     0.5029
A_1     C     0.8558     0.6559     0.7724
A_1     C     0.7763     0.8621     0.9835
A_0     C     0.6538     0.6186     0.7058
A_0     C     0.768     0.1312     0.2344
A_2     C     0.3999     0.2047     0.72
A_2     C     0.4211     0.5977     0.9587
A_1     C     0.8834     0.6266     0.2952
A_3     C     0.552     0.1478     0.017
A_0     C     0.0862     0.3702     0.9712
A_0     C     0.6964     0.5816     0.3646
A_0     C     0.3597     0.8233     0.6845
A_3     C     0.3245     0.5525     0.4502
A_3     C     0.5719     0.3886     0.8553
A_0     C     0.3673     0.1929     0.4437
A_2     C     0.4889     0.0911     0.2916
A_0     C     0.8443     0.9446     0.5957
A_2     C     0.7798     0.7493     0.7416
A_3     C     0.97     0.1045     0.957
A_2     C     0.6178     0.9109     0.3938
A_2     C     0.7951     0.947     0.9507
A_1     C     0.192     0.6312     0.1319
A_2     C     0.6539     0.0252     0.7261
A_1     C     0.1243     0.767     0.8123
A_1     C     0.2031     0.3991     0.3794
A_3     C     0.1555     0.6415     0.7976
A_3     C     0.7739     0.5553     0.046
A_3     C     0.9857     0.1055     0.3702
A_0     C     0.3596     0.3592     0.7781
A_0     C     0.2827     0.7955     0.3116
A_0     C     0.0042     0.2031     0.3882
A_0     C     0.0516     0.0606     0.8763
A_0     C     0.2521     0.3018     0.9027
A_2     C     0.1657     0.4916     0.1216
A_3     C     0.919     0.4779     0.4978
A_3     C     0.8455     0.0974     0.0691
A_3     C     0.4777     0.5616     0.758
A_1     C     0.7949     0.9919     0.9482
A_2     C     0.1803     0.947     0.1437
A_1     C     0.0078     0.697     0.5147
A_0     C     0.7854     0.3834     0.6044
A_1     C     0.6967     0.7197     0.213
A_0     C     0.6285     0.2371     0.6636
A_1     C     0.7731     0.516     0.2932
A_0     C     0.9916     0.6778     0.8542
A_3     C     0.7062     0.5451     0.6823
A_0     C     0.973     0.9143     0.7331
A_3     C     0.4194     0.9222     0.0243
A_0     C     0.6788     0.002     0.9182
A_1     C     0.1221     0.4029     0.0349
A_1     C     0.6552     0.4459     0.1247
A_0     C     0.7666     0.2145     0.7463
A_3     C     0.9598     0.3308     0.9843
A_0     C     0.1675     0.7182     0.2935
A_0     C     0.3324     0.1879     0.1354
A_2     C     0.3516     0.7425     0.0963
A_0     C     0.9523     0.1713     0.9877
A_0     C     0.9575     0.9013     0.5979
A_2     C     0.0515     0.6073     0.288
A_0     C     0.7522     0.0184     0.5331
A_3     C     0.0118     0.9964     0.9038
A_0     C     0.7892     0.0657     0.2613
A_0     C     0.4036     0.3987     0.0536
A_2     C     0.3503     0.3374     0.0997
A_0     C     0.6877     0.4511     0.8273
A_1     C     0.8107     0.6935     0.3275
A_0     C     0.5746     0.331     0.6228
A_1     C     0.4427     0.1781     0.1443
A_1     C     0.1784     0.1093     0.0672
A_0     C     0.2169     0.0205     0.5617
A_1     C     0.7485     0.5398     0.9815
A_1     C     0.977     0.9107     0.3758
A_3     C     0.0216     0.4098     0.7825
A_2     C     0.9924     0.8176     0.5109
A_0     C     0.1213     0.5549     0.7818
A_3     C     0.2674     0.5119     0.3822
A_3     C     0.1124     0.4932     0.8831
A_2     C     0.6558     0.4835     0.1857
A_1     C     0.3709     0.7481     0.5805
A_3     C     0.3387     0.9884     0.4535
A_3     C     0.9309     0.3871     0.0155
A_2     C     0.9452     0.7272     0.1951
A_1     C     0.6763     0.9016     0.6963
A_2     C     0.6399     0.1534     0.2215
A_0     C     0.5776     0.2265     0.2442
A_3     C     0.4125     0.5146     0.7726
A_1     C     0.0402     0.001     0.2422
A_0     C     0.8067     0.2445     0.1607
A_3     C     0.2924     0.1927     0.7642
A_3     C     0.9615     0.7486     0.0296
A_2     C     0.768     0.2818     0.1037
A_3     C     0.3698     0.5248     0.8935
A_3     C     0.4576     0.0753     0.2363
A_0     C     0.6552     0.6598     0.9857
A_2     C     0.7716     0.4094     0.5012
A_3     C     0.5084     0.928     0.4834
A_1     C     0.0804     0.1032     0.8732
A_1     C     0.0559     0.8385     0.7064
A_2     C     0.3014     0.1409     0.2166
A_3     C     0.7557     0.0283     0.4917
A_1     C     0.8909     0.6637     0.0311
A_2     C     0.8024     0.7743     0.3963
A_0     C     0.022     0.8693     0.3703
A_3     C     0.8413     0.6189     0.5772
A_1     C     0.1517     0.2485     0.114
A_0     C     0.4387     0.5869     0.5144
A_1     C     0.7713     0.9995     0.5255
A_0     C     0.17     0.71     0.374
A_2     C     0.0466     0.8865     0.0366
A_1     C     0.1375     0.9456     0.0359
A_1     C     0.6632     0.5946     0.9349
A_1     C     0.3473     0.1649     0.1246
A_1     C     0.8659     0.0987     0.1768
A_3     C     0.1475     0.4816     0.2119
A_2     C     0.4873     0.3505     0.1844
A_3     C     0.8045     0.2185     0.3898
A_2     C     0.9815     0.331     0.595
A_1     C     0.3131     0.7636     0.6182
A_2     C     0.5967     0.674     0.9279
A_2     C     0.1161     0.04     0.726
A_2     C     0.6923     0.7904     0.0147
A_0     C     0.7047     0.3026     0.2149
A_1     C     0.2218     0.114     0.9169
A_3     C     0.9071     0.7842     0.9438
A_0     C     0.1296     0.0423     0.9795
A_2     C     0.7541     0.7565     0.1505
A_1     C     0.9428     0.5651     0.0656
A_3     C     0.5282     0.7199     0.1684
A_2     C     0.7565     0.0065     0.5139
A_2     C     0.6786     0.3699     0.2604
A_0     C     0.5118     0.6041     0.4475
A_1     C     0.2127     0.9305     0.4726
A_3     C     0.4496     0.5203     0.277
A_1     C     0.8649     0.4236     0.8618
A_0     C     0.9409     0.4027     0.0666
A_2     C     0.9109     0.4873     0.8312
A_1     C     0.3055     0.2648     0.8633
A_1     C     0.0541     0.3735     0.6382
A_0     C     0.3575     0.4825     0.8468
A_2     C     0.8654     0.4417     0.4628
A_1     C     0.1254     0.2641     0.4945
A_0     C     0.8543     0.6624     0.4633
A_3     C     0.9416     0.2954     0.4059
A_2     C     0.7385     0.1034     0.159
A_0     C     0.7938     0.5691     0.9451
A_0     C     0.9579     0.0074     0.5408
A_2     C     0.1632     0.7522     0.5364
A_3     C     0.015     0.0353     0.3
A_1     C     0.1494     0.8776     0.4927
A_0     C     0.4479     0.0322     0.4581
A_2     C     0.7162     0.9944     0.6783
A_0     C     0.7138     0.922     0.9495
A_1     C     0.3216     0.917     0.5302
A_3     C     0.4419     0.255     0.4668
A_1     C     0.9526     0.6001     0.6874
A_1     C     0.5624     0.2777     0.3821
A_1     C     0.4597     0.3162     0.8901
A_3     C     0.6661     0.3082     0.122
A_0     C     0.9839     0.3412     0.0546
A_1     C     0.9857     0.3572     0.7711
A_3     C     0.42     0.378     0.573
A_3     C     0.1638     0.7917     0.7499
A_3     C     0.9324     0.9655     0.9824
A_3     C     0.1502     0.8301     0.282
A_2     C     0.3566     0.1161     0.8342
A_3     C     0.8687     0.0886     0.867
A_1     C     0.1526     0.5262     0.0574
A_3     C     0.6484     0.7887     0.2108
A_3     C     0.3895     0.1887     0.0685
A_2     C     0.9805     0.5254     0.8376
A_1     C     0.7704     0.0358     0.1846
A_3     C     0.4051     0.3794     0.8833
A_1     C     0.7333     0.5669     0.6806
A_2     C     0.0164     0.6736     0.9702
A_1     C     0.2589     0.9401     0.1462
A_3     C     0.8733     0.5065     0.9228
A_1     C     0.0841     0.8744     0.3149
A_3     C     0.2754     0.9521     0.3301
A_0     C     0.3553     0.1007     0.5354
A_1     C     0.8438     0.2244     0.1225
A_3     C     0.026     0.8732     0.4034
A_3     C     0.9864     0.778     0.7055
A_3     C     0.7185     0.8557     0.5344
A_2     C     0.4757     0.0927     0.0127
A_2     C     0.022     0.494     0.3397
A_2     C     0.1342     0.3523     0.5976
A_2     C     0.2814     0.7005     0.3125
A_3     C     0.924     0.5178     0.8745
A_2     C     0.4697     0.8546     0.432
A_2     C     0.0875     0.2333     0.7252
A_3     C     0.0471     0.3427     0.4947
A_2     C     0.7684     0.7176     0.3055
A_2     C     0.5687     0.1131     0.7832
A_3     C     0.5635     0.7235     0.1776
A_2     C     0.9926     0.1499     0.026
A_1     C     0.2795     0.5318     0.7492
A_2     C     0.621     0.6469     0.548
A_2     C     0.0309     0.5089     0.8761
A_1     C     0.3988     0.2123     0.137
A_3     C     0.1976     0.2334     0.7312
A_2     C     0.4481     0.3603     0.9874
A_0     C     0.0365     0.4766     0.2465
A_0     C     0.4     0.5286     0.1599
A_3     C     0.1349     0.6662     0.5454
A_0     C     0.7589     0.7798     0.5786
A_3     C     0.8631     0.401     0.1216
A_3     C     0.3787     0.6774     0.0558
A_2     C     0.3802     0.752     0.0061
A_2     C     0.0613     0.9843     0.4211
A_2     C     0.4922     0.8086     0.0145
A_0     C     0.7151     0.5912     0.2588
A_3     C     0.5252     0.1646     0.0865
A_0     C     0.8374     0.147     0.9996
A_0     C     0.4007     0.9544     0.9528
A_0     C     0.9343     0.7052     0.3345
A_0     C     0.6028     0.5498     0.8107
A_1     C     0.7154     0.2216     0.4707
A_1     C     0.7657     0.2356     0.2669
A_0     C     0.0458     0.0163     0.5736
A_2     C     0.0705     0.4141     0.8878
A_2     C     0.823     0.317     0.6541
A_1     C     0.9525     0.5412     0.2262
A_3     C     0.6257     0.0813     0.2638
A_0     C     0.2825     0.7384     0.9357
A_0     C     0.9167     0.9584     0.4557
A_2     C     0.0019     0.0622     0.4077
A_3     C     0.8795     0.1829     0.1158
A_2     C     0.5884     0.7933     0.2242
A_3     C     0.024     0.8434     0.5475
A_0     C     0.7537     0.8272     0.9049
A_3     C     0.9494     0.6943     0.9304
A_2     C     0.9221     0.2996     0.204
A_1     C     0.2808     0.6923     0.5981
A_2     C     0.5211     0.9192     0.5459
A_2     C     0.4785     0.8322     0.0528
A_0     C     0.1896     0.0595     0.7315
A_0     C     0.5467     0.7054     0.2745
A_0     C     0.8559     0.7909     0.5866
A_3     C     0.6289     0.2865     0.0324
A_3     C     0.2145     0.1251     0.5407
A_1     C     0.2705     0.4805     0.3641
A_2     C     0.1571     0.3036     0.9823
A_3     C     0.8113     0.9128     0.2728
A_0     C     0.0145     0.4663     0.117
A_2     C     0.2473     0.1116     0.9077
A_2     C     0.9399     0.9671     0.5259
A_2     C     0.503     0.6635     0.4362
A_2     C     0.3312     0.8412     0.7706
A_1     C     0.3054     0.3307     0.5389
A_2     C     0.2165     0.2542     0.9437
A_1     C     0.3018     0.8945     0.0068
A_2     C     0.7825     0.6161     0.6623
A_3     C     0.6463     0.3353     0.1757
A_0     C     0.4254     0.6869     0.2753
A_1     C     0.6804     0.5257     0.5976
A_2     C     0.2523     0.5118     0.3097
A_3     C     0.1381     0.4122     0.3783
A_3     C     0.2354     0.0324     0.7264
A_0     C     0.816     0.1047     0.5076
A_2     C     0.0336     0.9863     0.6347
A_0     C     0.972     0.4548     0.841
A_3     C     0.7576     0.434     0.9357
A_2     C     0.2769     0.7986     0.767
A_1     C     0.5711     0.9633     0.3235
A_3     C     0.288     0.765     0.0243
A_3     C     0.203     0.4225     0.5134
A_1     C     0.6154     0.7862     0.6467
A_0     C     0.0386     0.94     0.1011
A_3     C     0.1202     0.7675     0.6202
A_1     C     0.4265     0.979     0.7443
A_3     C     0.4346     0.7401     0.9931
A_3     C     0.8965     0.9056     0.1302
A_0     C     0.9876     0.1223     0.7236
A_3     C     0.2767     0.6795     0.4051
A_0     C     0.4433     0.5213     0.5118
A_0     C     0.0693     0.6506     0.9906
A_3     C     0.8976     0.5992     0.9152
A_2     C     0.9055     0.4606     0.0234
A_3     C     0.6208     0.2015     0.2193
A_1     C     0.6572     0.3552     0.0865
A_0     C     0.1559     0.5503     0.6366
A_1     C     0.4764     0.8975     0.9594
A_2     C     0.5224     0.0106     0.7025
A_0     C     0.1624     0.7704     0.4645
A_0     C     0.1346     0.4729     0.7658
A_2     C     0.1398     0.7536     0.2219
A_0     C     0.8386     0.1533     0.3196
A_3     C     0.588     0.9973     0.2135
A_0     C     0.2335     0.3487     0.6266
A_1     C     0.904     0.1021     0.5599
A_2     C     0.3988     0.2744     0.4589
A_3     C     0.5269     0.727     0.5604
A_0     C     0.018     0.3787     0.7307
A_0     C     0.9857     0.8576     0.1112
A_3     C     0.5859     0.2889     0.0961
A_3     C     0.1558     0.297     0.3444
A_2     C     0.5454     0.6323     0.9798
A_1     C     0.5827     0.7248     0.3769
A_1     C     0.5174     0.4581     0.6943
A_2     C     0.0302     0.622     0.2707
A_1     C     0.0204     0.6552     0.32
A_2     C     0.1315     0.604     0.7207
A_2     C     0.4762     0.3634     0.0832
A_3     C     0.0863     0.348     0.1039
A_1     C     0.6064     0.5873     0.8923
A_0     C     0.1915     0.0347     0.15
A_2     C     0.133     0.52     0.3948
A_1     C     0.6615     0.1437     0.6838
A_2     C     0.8695     0.3623     0.1975
A_3     C     0.4247     0.6     0.5401
A_0     C     0.5098     0.4161     0.9754
A_2     C     0.069     0.2453     0.6604
A_1     C     0.9645     0.6659     0.5711
A_1     C     0.2235     0.7303     0.1192
A_3     C     0.9971     0.0732     0.5213
A_2     C     0.3299     0.0701     0.318
A_0     C     0.2968     0.6581     0.1074
A_0     C     0.5911     0.1796     0.0406
A_0     C     0.51     0.381     0.1342
A_2     C     0.8641     0.0999     0.852
A_1     C     0.6034     0.5316     0.2475
A_1     C     0.5462     0.0328     0.0302
A_2     C     0.7522     0.5803     0.3795
A_0     C     0.6869     0.2596     0.2211
A_2     C     0.6763     0.3214     0.1727
A_1     C     0.7847     0.8222     0.0466
A_1     C     0.5284     0.2652     0.1235
A_0     C     0.2785     0.3908     0.3574
A_0     C     0.7127     0.491     0.5151
A_2     C     0.1145     0.9582     0.6676
A_3     C     0.9953     0.7213     0.9673
A_3     C     0.0152     0.7037     0.4664
A_3     C     0.3754     0.8376     0.4791
A_0     C     0.4846     0.7518     0.9933
A_2     C     0.7424     0.5722     0.5929
A_1     C     0.0087     0.7323     0.9827
A_1     C     0.2613     0.754     0.4498
A_1     C     0.0212     0.2107     0.3602
A_3     C     0.6652     0.8927     0.7851
A_2     C     0.4739     0.3864     0.2452
A_2     C     0.6628     0.3865     0.0973
A_0     C     0.6451     0.4786     0.4247
A_3     C     0.2317     0.2486     0.5178
A_3     C     0.4491     0.3633     0.4772
A_2     C     0.9717     0.9011     0.4711
A_1     C     0.9469     0.8661     0.6721
A_1     C     0.2209     0.6363     0.9546
A_1     C     0.9619     0.0847     0.2607
A_2     C     0.1086     0.2989     0.7127
A_0     C     0.7523     0.2972     0.3642
A_2     C     0.6076     0.5422     0.1691
A_3     C     0.1767     0.9987     0.7565
A_0     C     0.5481     0.6736     0.8979
A_0     C     0.3819     0.3662     0.3189
A_0     C     0.5518     0.6837     0.84
A_1     C     0.1054     0.616     0.357
A_2     C     0.7785     0.509     0.3247
A_0     C     0.9252     0.0336     0.2279
A_2     C     0.71     0.4522     0.6632
A_2     C     0.1267     0.9761     0.6971
A_1     C     0.7118     0.9683     0.9913
A_3     C     0.9256     0.225     0.4707
A_2     C     0.7654     0.6423     0.8991
A_1     C     0.3512     0.1937     0.3921
A_3     C     0.9667     0.1628     0.1202
A_1     C     0.6173     0.4035     0.4292
A_0     C     0.4012     0.2635     0.5903
A_2     C     0.1873     0.2555     0.3096
A_1     C     0.1792     0.948     0.4221
A_3     C     0.3601     0.8773     0.4515
A_1     C     0.0751     0.2906     0.3367
A_0     C     0.8357     0.4152     0.8997
A_1     C     0.7177     0.9547     0.8011
A_3     C     0.4889     0.6992     0.9233
A_0     C     0.8657     0.3763     0.1959
A_3     C     0.0797     0.1778     0.4951
A_0     C     0.8278     0.9479     0.5979
A_1     C     0.4471     0.9527     0.9773
A_3     C     0.1642     0.1552     0.2431
A_1     C     0.9787     0.1336     0.8015
A_0     C     0.5983     0.6855     0.4685
A_3     C     0.8022     0.3774     0.6582
A_0     C     0.6815     0.7885     0.2566
A_3     C     0.7318     0.2349     0.5006
A_1     C     0.1074     0.1767     0.7121
A_0     C     0.7902     0.6278     0.3395
A_1     C     0.188     0.7106     0.9745
A_2     C     0.1452     0.9108     0.8185
A_1     C     0.1491     0.3494     0.1731
A_2     C     0.7735     0.9679     0.5192
A_3     C     0.9288     0.6012     0.8577
A_2     C     0.7238     0.9324     0.9562
A_3     C     0.6455     0.6279     0.5594
A_0     C     0.5015     0.1003     0.7316
A_1     C     0.4689     0.7813     0.1997
A_0     C     0.007     0.8347     0.8988
