MAT-93

loop_
_symmetry_equiv_pos_as_xyz
  x,y,z
_cell_length_a          34.9284
_cell_length_b          33.7224
_cell_length_c          48.051
_cell_angle_alpha       90.0000
_cell_angle_beta        90.0000
_cell_angle_gamma       90.0000
loop_
_atom_site_label
_atom_site_type_symbol
_atom_site_fract_x
_atom_site_fract_y
_atom_site_fract_z
A_1     C     0.6689     0.0726     0.3146
A_0     C     0.8299     0.5662     0.3851
A_0     C     0.433     0.9261     0.9433
A_2     C     0.7478     0.527     0.2625
A_1     C     0.7428     0.2705     0.91
A_1     C     0.1134     0.0208     0.2345
A_3     C     0.3627     0.2908     0.8
A_3     C     0.9646     0.3508     0.2232
A_0     C     0.3745     0.8776     0.2573
A_3     C     0.7039     0.406     0.7954
A_1     C     0.3369     0.8017     0.7769
A_2     C     0.789     0.985     0.4279
A_1     C     0.6713     0.334     0.2356
A_0     C     0.93     0.2193     0.536
A_3     C     0.4175     0.2931     0.9136
A_0     C     0.3355     0.773     0.7886
A_2     C     0.3607     0.1935     0.2461
A_1     C     0.8117     0.9429     0.047
A_2     C     0.4534     0.4677     0.7796
A_0     C     0.0076     0.5857     0.3338
A_3     C     0.2781     0.3896     0.2911
A_2     C     0.6746     0.4648     0.5145
A_2     C     0.2998     0.771     0.7065
A_0     C     0.66     0.3384     0.3551
A_3     C     0.3218     0.7649     0.7849
A_0     C     0.3746     0.871     0.9674
A_0     C     0.6665     0.2491     0.3531
A_2     C     0.4091     0.9327     0.0423
A_0     C     0.7871     0.791     0.7051
A_0     C     0.0669     0.0965     0.375
A_0     C     0.1919     0.3302     0.9597
A_3     C     0.3163     0.3889     0.7088
A_2     C     0.6087     0.0942     0.9238
A_1     C     0.018     0.2165     0.3096
A_0     C     0.3653     0.1834     0.6162
A_2     C     0.2341     0.4223     0.8911
A_0     C     0.963     0.3844     0.0483
A_1     C     0.015     0.3215     0.6468
A_1     C     0.0917     0.973     0.225
A_0     C     0.8067     0.2718     0.0321
A_1     C     0.505     0.3035     0.9468
A_1     C     0.9346     0.2515     0.4388
A_2     C     0.3201     0.0274     0.2792
A_3     C     0.6873     0.9486     0.883
A_1     C     0.915     0.3791     0.1821
A_1     C     0.3598     0.7486     0.2467
A_3     C     0.6128     0.8153     0.976
A_2     C     0.9524     0.8982     0.1757
A_0     C     0.7626     0.2251     0.5355
A_2     C     0.9044     0.0208     0.402
A_3     C     0.205     0.3968     0.689
A_0     C     0.7442     0.863     0.1161
A_2     C     0.1771     0.9768     0.1112
A_1     C     0.4335     0.0109     0.8307
A_3     C     0.6612     0.0102     0.4739
A_0     C     0.3899     0.1842     0.5257
A_3     C     0.8288     0.3861     0.8889
A_1     C     0.2622     0.408     0.8511
A_2     C     0.988     0.1081     0.3978
A_2     C     0.9159     0.1296     0.0338
A_2     C     0.3525     0.9314     0.8312
A_1     C     0.0432     0.8751     0.0781
A_1     C     0.8417     0.9214     0.3522
A_3     C     0.226     0.8409     0.6127
A_1     C     0.8954     0.0176     0.0688
A_1     C     0.5559     0.7374     0.1269
A_1     C     0.2048     0.2598     0.8392
A_1     C     0.6758     0.9838     0.9959
A_2     C     0.0164     0.1358     0.4789
A_0     C     0.8972     0.7639     0.9781
A_3     C     0.3987     0.0749     0.0269
A_0     C     0.9223     0.1227     0.6377
A_2     C     0.2623     0.5458     0.8606
A_3     C     0.0566     0.6873     0.6811
A_0     C     0.1821     0.9336     0.9156
A_1     C     0.4415     0.3885     0.7723
A_3     C     0.574     0.4527     0.3496
A_0     C     0.6155     0.4656     0.5479
A_3     C     0.2191     0.1513     0.2137
A_0     C     0.6348     0.5456     0.8246
A_3     C     0.3701     0.5551     0.9803
A_3     C     0.7159     0.0577     0.9998
A_0     C     0.9664     0.2129     0.1134
A_1     C     0.3022     0.9628     0.4347
A_2     C     0.037     0.0497     0.5541
A_2     C     0.3714     0.9625     0.0133
A_3     C     0.939     0.6497     0.821
A_3     C     0.87     0.6155     0.322
A_3     C     0.3274     0.8226     0.4194
A_0     C     0.5014     0.3241     0.6839
A_3     C     0.5776     0.7864     0.648
A_0     C     0.3411     0.2845     0.5355
A_3     C     0.3167     0.765     0.4892
A_2     C     0.4967     0.3613     0.05
A_0     C     0.8254     0.2489     0.6945
A_1     C     0.906     0.7472     0.9439
A_2     C     0.2034     0.5624     0.6214
A_2     C     0.1004     0.3016     0.3848
A_2     C     0.8032     0.7564     0.9821
A_0     C     0.7201     0.7703     0.4677
A_2     C     0.421     0.3094     0.9618
A_0     C     0.5883     0.8261     0.0533
A_3     C     0.0146     0.3981     0.0058
A_3     C     0.1351     0.5823     0.7609
A_3     C     0.4259     0.9776     0.5339
A_1     C     0.5133     0.2738     0.3925
A_3     C     0.7558     0.9159     0.6192
A_2     C     0.0176     0.6045     0.1735
A_3     C     0.0981     0.7739     0.4005
A_3     C     0.712     0.5766     0.8189
A_2     C     0.386     0.3507     0.4963
A_3     C     0.4663     0.2446     0.5193
A_1     C     0.7552     0.2194     0.3835
A_3     C     0.3358     0.344     0.8531
A_2     C     0.9117     0.612     0.5897
A_1     C     0.2005     0.5177     0.4042
A_0     C     0.1712     0.8559     0.4777
A_1     C     0.1948     0.5911     0.0241
A_3     C     0.9477     0.7075     0.1989
A_3     C     0.5405     0.9066     0.3371
A_1     C     0.7422     0.5184     0.5165
A_1     C     0.3744     0.2365     0.8195
A_3     C     0.8763     0.0218     0.0333
A_2     C     0.9164     0.318     0.7495
A_2     C     0.966     0.7034     0.7738
A_2     C     0.4473     0.7338     0.5141
A_2     C     0.7482     0.8811     0.7318
A_0     C     0.0624     0.3698     0.7584
A_3     C     0.685     0.8332     0.1807
A_2     C     0.6073     0.3457     0.2003
A_1     C     0.4966     0.9666     0.3651
A_1     C     0.5846     0.7109     0.0034
A_0     C     0.8994     0.6473     0.5624
A_3     C     0.9392     0.1091     0.7348
A_3     C     0.3669     0.5928     0.5763
A_0     C     0.8141     0.1275     0.5923
A_1     C     0.028     0.6949     0.9613
A_0     C     0.0657     0.4388     0.0845
A_1     C     0.2482     0.627     0.6163
A_1     C     0.6846     0.776     0.4928
A_0     C     0.4959     0.0604     0.159
A_2     C     0.3588     0.5136     0.7783
A_3     C     0.5343     0.0552     0.4096
A_0     C     0.9229     0.0457     0.208
A_1     C     0.3549     0.1569     0.09
A_1     C     0.5053     0.481     0.4877
A_3     C     0.8113     0.4875     0.2312
A_2     C     0.2689     0.031     0.5091
A_1     C     0.1043     0.451     0.8938
A_1     C     0.7873     0.0075     0.4707
A_2     C     0.7844     0.5545     0.8283
A_0     C     0.7093     0.7335     0.4288
A_1     C     0.5121     0.0213     0.7089
A_3     C     0.7199     0.085     0.8981
A_2     C     0.7422     0.6019     0.9787
A_1     C     0.4747     0.7421     0.904
A_2     C     0.1945     0.3956     0.1574
A_2     C     0.4578     0.3631     0.8471
A_2     C     0.2785     0.6959     0.7834
A_0     C     0.2051     0.9208     0.5638
A_1     C     0.7816     0.7611     0.0239
A_1     C     0.1773     0.8524     0.2508
A_2     C     0.3112     0.5519     0.6697
A_3     C     0.0261     0.408     0.4879
A_3     C     0.3635     0.4255     0.5872
A_2     C     0.6856     0.971     0.7478
A_3     C     0.6673     0.4099     0.192
A_2     C     0.7975     0.6651     0.6744
A_2     C     0.8133     0.5513     0.3204
A_0     C     0.5759     0.4167     0.4495
A_2     C     0.9295     0.3616     0.975
A_0     C     0.172     0.5     0.0702
A_0     C     0.7089     0.4927     0.2576
A_1     C     0.7576     0.5907     0.8581
A_1     C     0.2399     0.03     0.7657
A_0     C     0.7218     0.76     0.6824
A_1     C     0.4674     0.9883     0.3025
A_2     C     0.8474     0.8193     0.9434
A_3     C     0.2814     0.1745     0.0306
A_2     C     0.4138     0.5542     0.4149
A_2     C     0.9198     0.6014     0.0697
A_3     C     0.0807     0.2998     0.7808
A_2     C     0.4228     0.8273     0.5322
A_3     C     0.4888     0.4362     0.4713
A_3     C     0.574     0.8677     0.1348
A_2     C     0.1817     0.7126     0.547
A_3     C     0.1172     0.977     0.7947
A_2     C     0.8999     0.6696     0.1624
A_0     C     0.4323     0.9429     0.077
A_2     C     0.8835     0.9482     0.0089
A_2     C     0.5459     0.2317     0.029
A_2     C     0.2547     0.8837     0.6256
A_1     C     0.2038     0.7523     0.0932
A_1     C     0.2685     0.614     0.6154
A_2     C     0.6829     0.093     0.6872
A_1     C     0.9719     0.0168     0.3245
A_2     C     0.2123     0.8448     0.6009
A_2     C     0.6363     0.2992     0.9166
A_3     C     0.1805     0.9196     0.1523
A_3     C     0.849     0.828     0.3655
A_0     C     0.7312     0.0939     0.5734
A_2     C     0.0865     0.5583     0.347
A_3     C     0.917     0.9193     0.5242
A_1     C     0.3635     0.6972     0.6278
A_0     C     0.4431     0.703     0.0874
A_1     C     0.4995     0.2871     0.4409
A_3     C     0.8274     0.8585     0.2361
A_2     C     0.9362     0.6488     0.2115
A_3     C     0.7581     0.2471     0.8009
A_3     C     0.8114     0.6808     0.9474
A_2     C     0.1239     0.6274     0.8331
A_2     C     0.0745     0.8919     0.6802
A_0     C     0.7246     0.5969     0.4515
A_3     C     0.5621     0.3658     0.5763
A_0     C     0.7206     0.156     0.014
A_1     C     0.4643     0.4084     0.4979
A_0     C     0.3063     0.2256     0.1219
A_2     C     0.2942     0.7889     0.9157
A_3     C     0.3284     0.7777     0.7355
A_1     C     0.1951     0.9224     0.346
A_1     C     0.513     0.3277     0.7273
A_1     C     0.5854     0.7309     0.2782
A_1     C     0.7919     0.6663     0.866
A_0     C     0.677     0.92     0.5299
A_2     C     0.577     0.0802     0.3283
A_1     C     0.3549     0.377     0.421
A_0     C     0.0421     0.689     0.6824
A_0     C     0.4043     0.8078     0.2108
A_2     C     0.0316     0.1778     0.0074
A_2     C     0.2254     0.2354     0.3479
A_3     C     0.7326     0.974     0.1237
A_3     C     0.1839     0.7821     0.905
A_1     C     0.4701     0.2638     0.3925
A_0     C     0.5702     0.4432     0.5084
A_3     C     0.5044     0.5976     0.7697
A_2     C     0.0511     0.4293     0.2442
A_0     C     0.605     0.5744     0.0008
A_3     C     0.2949     0.6912     0.952
A_0     C     0.6357     0.7115     0.4378
A_2     C     0.5734     0.0379     0.8146
A_2     C     0.6386     0.3901     0.5477
A_3     C     0.7502     0.8152     0.4983
A_0     C     0.7591     0.5701     0.498
A_3     C     0.4749     0.0955     0.5171
A_0     C     0.8664     0.2018     0.362
A_1     C     0.0529     0.1052     0.306
A_3     C     0.5065     0.3973     0.927
A_0     C     0.6443     0.1687     0.0586
A_0     C     0.3854     0.7634     0.4744
A_1     C     0.1899     0.602     0.9859
A_0     C     0.6479     0.029     0.0003
A_0     C     0.8836     0.6344     0.5901
A_1     C     0.5798     0.955     0.9486
A_3     C     0.3499     0.5527     0.485
A_3     C     0.7505     0.6193     0.7428
A_1     C     0.3981     0.0525     0.5624
A_2     C     0.7151     0.5669     0.2712
A_2     C     0.9298     0.8039     0.5176
A_0     C     0.8292     0.4848     0.1245
A_1     C     0.8418     0.2961     0.5889
A_2     C     0.7019     0.1773     0.2209
A_2     C     0.8968     0.7571     0.0333
A_2     C     0.3166     0.6694     0.2404
A_0     C     0.991     0.3471     0.5324
A_2     C     0.8076     0.325     0.3662
A_2     C     0.7451     0.4715     0.8826
A_2     C     0.9984     0.6503     0.6636
A_1     C     0.177     0.1453     0.7013
A_1     C     0.1846     0.1649     0.2933
A_1     C     0.9423     0.2431     0.4113
A_3     C     0.3754     0.8904     0.56
A_2     C     0.714     0.2649     0.6721
A_1     C     0.6712     0.1435     0.587
A_3     C     0.5013     0.8087     0.0821
A_2     C     0.0395     0.1985     0.6206
A_1     C     0.545     0.0908     0.48
A_3     C     0.2493     0.7036     0.1853
A_3     C     0.6923     0.9132     0.3779
A_0     C     0.0206     0.0101     0.4415
A_1     C     0.7232     0.9848     0.2947
A_0     C     0.9983     0.3421     0.1065
A_0     C     0.0401     0.9275     0.5006
A_3     C     0.9231     0.748     0.4455
A_2     C     0.0666     0.7066     0.2786
A_1     C     0.4266     0.3549     0.4409
A_1     C     0.0833     0.3116     0.2566
A_0     C     0.7866     0.9641     0.9923
A_2     C     0.5604     0.1373     0.1437
A_0     C     0.5969     0.4356     0.2777
A_1     C     0.2631     0.8507     0.6924
A_0     C     0.5803     0.7842     0.5459
A_2     C     0.6419     0.3331     0.4342
A_2     C     0.6095     0.8518     0.0924
A_3     C     0.5329     0.9787     0.5942
A_1     C     0.3486     0.7061     0.5645
A_0     C     0.3044     0.5952     0.9296
A_1     C     0.8658     0.1619     0.8543
A_2     C     0.9961     0.7853     0.52
A_2     C     0.7135     0.7728     0.5
A_3     C     0.2417     0.345     0.403
A_1     C     0.1138     0.331     0.6
A_2     C     0.0345     0.3522     0.4663
A_0     C     0.6062     0.8779     0.716
A_0     C     0.1154     0.7498     0.1039
A_3     C     0.8689     0.3767     0.4836
A_1     C     0.5621     0.0034     0.4854
A_3     C     0.0439     0.4359     0.8588
A_0     C     0.7974     0.425     0.493
A_1     C     0.2264     0.1866     0.8735
A_1     C     0.1956     0.8647     0.0381
A_0     C     0.6142     0.8958     0.5191
A_3     C     0.3548     0.5256     0.257
A_0     C     0.4168     0.125     0.0736
A_0     C     0.3708     0.4055     0.3745
A_3     C     0.4312     0.0607     0.8518
A_2     C     0.8896     0.2671     0.0289
A_0     C     0.1509     0.3013     0.6255
A_1     C     0.7881     0.6744     0.6757
A_3     C     0.688     0.0045     0.6243
A_2     C     0.8047     0.3742     0.5774
A_2     C     0.9838     0.4542     0.4353
A_1     C     0.1858     0.1208     0.6372
A_0     C     0.6792     0.3021     0.3875
A_1     C     0.6225     0.2484     0.5909
A_1     C     0.7589     0.4445     0.433
A_2     C     0.6193     0.5424     0.1444
A_0     C     0.1991     0.1953     0.3168
A_3     C     0.1853     0.2327     0.7311
A_3     C     0.0709     0.6828     0.7376
A_2     C     0.3487     0.4931     0.2807
A_1     C     0.6278     0.3467     0.8825
A_1     C     0.2681     0.8123     0.8191
A_0     C     0.5079     0.2087     0.09
A_0     C     0.4116     0.2983     0.3718
A_1     C     0.9147     0.268     0.0609
A_1     C     0.6277     0.908     0.964
A_0     C     0.982     0.0514     0.6811
A_3     C     0.8987     0.5073     0.5725
A_3     C     0.2431     0.5941     0.566
A_2     C     0.3894     0.4536     0.0116
A_0     C     0.2872     0.1257     0.88
A_3     C     0.4623     0.8467     0.9352
A_0     C     0.9676     0.4641     0.5618
A_0     C     0.3296     0.8571     0.5933
A_1     C     0.5437     0.4096     0.6621
A_3     C     0.3974     0.6889     0.3288
A_0     C     0.6796     0.8115     0.7404
A_0     C     0.9932     0.6802     0.095
A_3     C     0.7675     0.0293     0.42
A_3     C     0.7402     0.0433     0.6656
A_0     C     0.0431     0.2537     0.5532
A_2     C     0.3168     0.3347     0.566
A_2     C     0.113     0.1315     0.7359
A_3     C     0.5421     0.8842     0.7286
A_2     C     0.1066     0.1224     0.367
A_0     C     0.569     0.1975     0.0695
A_3     C     0.7841     0.3046     0.3031
A_2     C     0.152     0.6868     0.8365
A_0     C     0.8856     0.4996     0.9413
A_3     C     0.037     0.1079     0.6341
A_0     C     0.0963     0.6227     0.6263
A_2     C     0.357     0.4061     0.8953
A_0     C     0.5356     0.5752     0.7688
A_0     C     0.6794     0.2454     0.1288
A_1     C     0.8928     0.905     0.767
A_1     C     0.5533     0.849     0.5762
A_1     C     0.4673     0.2885     0.0369
A_0     C     0.4068     0.8502     0.0538
A_3     C     0.7644     0.8392     0.0713
A_1     C     0.5169     0.6518     0.8785
A_0     C     0.3168     0.5375     0.7892
A_1     C     0.0227     0.1822     0.4725
A_1     C     0.3325     0.0769     0.3569
A_1     C     0.9472     0.7081     0.6652
A_3     C     0.6044     0.203     0.0153
A_1     C     0.2008     0.2382     0.3792
