MAT-64

loop_
_symmetry_equiv_pos_as_xyz
  x,y,z
_cell_length_a          39.6421
_cell_length_b          44.9937
_cell_length_c          33.4777
_cell_angle_alpha       90.0000
_cell_angle_beta        90.0000
_cell_angle_gamma       90.0000
loop_
_atom_site_label
_atom_site_type_symbol
_atom_site_fract_x
_atom_site_fract_y
_atom_site_fract_z
A_1     C     0.6787     0.3369     0.9059
A_3     C     0.7645     0.4538     0.6629
A_0     C     0.9399     0.9059     0.8468
A_2     C     0.2314     0.2667     0.6682
A_0     C     0.3954     0.4423     0.1432
A_3     C     0.1676     0.0931     0.6454
A_2     C     0.5858     0.4485     0.2215
A_3     C     0.6851     0.0166     0.7351
A_3     C     0.941     0.8709     0.5138
A_2     C     0.7103     0.6164     0.6135
A_3     C     0.9755     0.7273     0.9957
A_2     C     0.6764     0.9704     0.6636
A_3     C     0.7839     0.5433     0.0105
A_2     C     0.5791     0.786     0.6918
A_3     C     0.5108     0.7968     0.0333
A_0     C     0.7812     0.9544     0.8726
A_3     C     0.9278     0.3274     0.7549
A_3     C     0.7122     0.1029     0.0966
A_3     C     0.4168     0.309     0.9424
A_1     C     0.7969     0.5276     0.6334
A_1     C     0.0029     0.346     0.4339
A_1     C     0.9433     0.6673     0.1902
A_2     C     0.5865     0.9161     0.1217
A_2     C     0.6025     0.7027     0.7698
A_1     C     0.4926     0.5364     0.4759
A_3     C     0.3509     0.228     0.5681
A_3     C     0.3458     0.6696     0.7483
A_2     C     0.5653     0.2176     0.3942
A_1     C     0.1363     0.1422     0.1478
A_3     C     0.1285     0.0489     0.3281
A_1     C     0.303     0.4425     0.8515
A_0     C     0.567     0.7068     0.1072
A_2     C     0.7604     0.623     0.4007
A_3     C     0.1394     0.3752     0.1775
A_3     C     0.7447     0.4853     0.9436
A_3     C     0.726     0.6049     0.1297
A_3     C     0.202     0.7724     0.8677
A_2     C     0.6154     0.9128     0.7038
A_3     C     0.8163     0.6961     0.1674
A_3     C     0.032     0.8298     0.8178
A_1     C     0.6601     0.1818     0.6089
A_2     C     0.6503     0.9504     0.414
A_2     C     0.1076     0.102     0.8919
A_0     C     0.8885     0.1142     0.3833
A_3     C     0.8818     0.6703     0.3037
A_2     C     0.1668     0.0132     0.9157
A_0     C     0.8132     0.2283     0.6655
A_2     C     0.5474     0.3857     0.984
A_3     C     0.4588     0.6566     0.3578
A_3     C     0.7657     0.266     0.283
A_2     C     0.1453     0.377     0.193
A_2     C     0.2793     0.012     0.3523
A_2     C     0.9091     0.5153     0.0133
A_3     C     0.5771     0.9957     0.7293
A_0     C     0.3482     0.0315     0.6996
A_1     C     0.3605     0.0493     0.245
A_1     C     0.853     0.1502     0.5459
A_1     C     0.6076     0.5617     0.1068
A_3     C     0.9813     0.9034     0.1151
A_2     C     0.2896     0.4834     0.4717
A_1     C     0.8147     0.3587     0.8563
A_3     C     0.084     0.4542     0.7719
A_2     C     0.5099     0.9239     0.8679
A_0     C     0.2309     0.0357     0.7038
A_0     C     0.237     0.2413     0.273
A_3     C     0.5828     0.9816     0.9202
A_0     C     0.2265     0.5001     0.2496
A_0     C     0.7897     0.0152     0.0212
A_0     C     0.5411     0.5024     0.5041
A_0     C     0.3175     0.324     0.8231
A_3     C     0.5997     0.0443     0.8293
A_2     C     0.2229     0.3054     0.8339
A_1     C     0.0497     0.9226     0.3404
A_3     C     0.3857     0.2388     0.4365
A_3     C     0.3958     0.4023     0.8364
A_1     C     0.4252     0.7784     0.7699
A_3     C     0.8111     0.0711     0.0551
A_0     C     0.0495     0.5797     0.1235
A_1     C     0.191     0.914     0.3892
A_1     C     0.8786     0.7911     0.9669
A_2     C     0.6999     0.914     0.5826
A_1     C     0.0126     0.8742     0.8537
A_2     C     0.6176     0.2852     0.2087
A_2     C     0.5352     0.6008     0.0538
A_0     C     0.3368     0.5854     0.1246
A_1     C     0.4861     0.8123     0.6718
A_2     C     0.538     0.7334     0.4687
A_3     C     0.0426     0.0857     0.22
A_3     C     0.4329     0.3792     0.1003
A_1     C     0.128     0.8959     0.9382
A_2     C     0.8552     0.8258     0.2536
A_1     C     0.0944     0.9963     0.7594
A_2     C     0.5251     0.5655     0.8219
A_2     C     0.0184     0.8899     0.6278
A_2     C     0.7436     0.027     0.2515
A_3     C     0.2653     0.4661     0.0442
A_2     C     0.3329     0.1279     0.0224
A_1     C     0.7581     0.252     0.0982
A_1     C     0.9621     0.7391     0.499
A_1     C     0.7626     0.959     0.2313
A_1     C     0.555     0.7135     0.7799
A_3     C     0.9724     0.7735     0.0645
A_3     C     0.9263     0.5738     0.4459
A_3     C     0.0787     0.9791     0.8288
A_0     C     0.9576     0.528     0.9236
A_1     C     0.0947     0.9784     0.4186
A_3     C     0.4935     0.4139     0.9538
A_3     C     0.7807     0.7705     0.8666
A_0     C     0.6295     0.2643     0.3052
A_0     C     0.2393     0.8111     0.5068
A_1     C     0.9759     0.1049     0.8139
A_2     C     0.3875     0.3971     0.2499
A_0     C     0.2732     0.1627     0.2723
A_1     C     0.112     0.8003     0.6768
A_1     C     0.3219     0.2328     0.2716
A_1     C     0.8001     0.4757     0.583
A_1     C     0.197     0.9443     0.9841
A_2     C     0.4822     0.0543     0.9132
A_3     C     0.9872     0.8828     0.517
A_3     C     0.9875     0.8197     0.7979
A_3     C     0.4812     0.5227     0.654
A_2     C     0.2366     0.3204     0.1505
A_0     C     0.0432     0.9982     0.1305
A_3     C     0.5971     0.0405     0.1866
A_2     C     0.0603     0.5231     0.7048
A_0     C     0.3853     0.8207     0.5235
A_1     C     0.165     0.0353     0.3699
A_2     C     0.0042     0.5474     0.9332
A_1     C     0.7239     0.3344     0.2244
A_1     C     0.1663     0.6563     0.4941
A_3     C     0.1124     0.3178     0.3389
A_0     C     0.0979     0.7653     0.3979
A_3     C     0.6709     0.728     0.7715
A_0     C     0.128     0.8797     0.0722
A_2     C     0.6941     0.5104     0.2897
A_1     C     0.0639     0.8158     0.5352
A_1     C     0.4677     0.1687     0.0601
A_0     C     0.0107     0.5312     0.1507
A_2     C     0.038     0.9494     0.9068
A_2     C     0.1553     0.0818     0.1468
A_0     C     0.0622     0.314     0.6738
A_0     C     0.65     0.4448     0.8609
A_0     C     0.7911     0.1242     0.987
A_2     C     0.6424     0.9081     0.4841
A_2     C     0.5167     0.2315     0.6355
A_2     C     0.7844     0.2526     0.8743
A_2     C     0.2011     0.9523     0.8832
A_1     C     0.1231     0.9638     0.7957
A_3     C     0.9846     0.2723     0.7022
A_2     C     0.4298     0.279     0.5661
A_0     C     0.287     0.9616     0.5395
A_3     C     0.8494     0.4609     0.8443
A_1     C     0.5651     0.8746     0.6362
A_0     C     0.8255     0.1289     0.9161
A_3     C     0.9873     0.7166     0.513
A_2     C     0.8298     0.9361     0.1445
A_3     C     0.5892     0.7127     0.5474
A_2     C     0.8526     0.4197     0.6512
A_0     C     0.113     0.7811     0.8826
A_1     C     0.5676     0.8038     0.256
A_0     C     0.5582     0.7216     0.0668
A_2     C     0.0453     0.5778     0.0279
A_3     C     0.2786     0.4517     0.2743
A_3     C     0.8875     0.8239     0.6821
A_0     C     0.8527     0.1678     0.6115
A_0     C     0.526     0.2081     0.8923
A_3     C     0.6045     0.2496     0.5377
A_0     C     0.5104     0.5433     0.5062
A_2     C     0.677     0.6881     0.3002
A_0     C     0.2094     0.8571     0.0224
A_2     C     0.988     0.6864     0.8946
A_2     C     0.0142     0.7472     0.0448
A_0     C     0.4147     0.9269     0.2311
A_1     C     0.6704     0.1329     0.3439
A_0     C     0.7603     0.6702     0.4256
A_0     C     0.2611     0.2969     0.1132
A_1     C     0.3475     0.6856     0.5623
A_3     C     0.6863     0.6343     0.459
A_0     C     0.3141     0.4313     0.5301
A_1     C     0.7263     0.8058     0.7578
A_0     C     0.5611     0.8892     0.9232
A_0     C     0.0878     0.1302     0.2167
A_2     C     0.6858     0.5094     0.3573
A_1     C     0.734     0.8416     0.9273
A_1     C     0.2979     0.916     0.0251
A_1     C     0.4355     0.2932     0.0658
A_3     C     0.9914     0.6484     0.6284
A_0     C     0.9938     0.3069     0.8965
A_2     C     0.1166     0.21     0.6899
A_1     C     0.9256     0.8322     0.4518
A_0     C     0.5559     0.3094     0.7822
A_2     C     0.6662     0.6909     0.7548
A_3     C     0.8572     0.5074     0.5154
A_3     C     0.4423     0.1962     0.997
A_0     C     0.7166     0.0414     0.2894
A_0     C     0.0576     0.3607     0.6303
A_2     C     0.7297     0.169     0.5668
A_1     C     0.2365     0.3793     0.6779
A_0     C     0.1923     0.6843     0.8624
A_1     C     0.1292     0.4845     0.9205
A_3     C     0.589     0.6137     0.2233
A_0     C     0.1349     0.7935     0.9978
A_0     C     0.9024     0.5419     0.6667
A_2     C     0.3174     0.0219     0.6192
A_1     C     0.733     0.6466     0.8328
A_3     C     0.4118     0.1909     0.1461
A_2     C     0.4767     0.8611     0.3904
A_1     C     0.1806     0.8876     0.3457
A_3     C     0.2276     0.5096     0.6757
A_0     C     0.1267     0.7257     0.5122
A_3     C     0.6968     0.0522     0.8164
A_2     C     0.55     0.7732     0.9932
A_2     C     0.9358     0.2121     0.5193
A_2     C     0.2383     0.9626     0.1223
A_1     C     0.2529     0.5985     0.9267
A_3     C     0.7864     0.5186     0.3068
A_1     C     0.1359     0.4261     0.736
A_2     C     0.4089     0.9423     0.8795
A_3     C     0.3316     0.4734     0.922
A_3     C     0.2895     0.2485     0.1463
A_1     C     0.5129     0.5658     0.1616
A_2     C     0.9817     0.9332     0.2751
A_1     C     0.0674     0.3319     0.899
A_0     C     0.4228     0.2359     0.0255
A_2     C     0.1762     0.5868     0.3201
A_1     C     0.5516     0.5606     0.0095
A_1     C     0.0514     0.1352     0.0652
A_3     C     0.2887     0.9439     0.5243
A_0     C     0.8102     0.5687     0.8466
A_3     C     0.4959     0.702     0.8654
A_2     C     0.9664     0.2707     0.0251
A_0     C     0.0177     0.2053     0.4839
A_3     C     0.6976     0.2233     0.3568
A_0     C     0.6972     0.4312     0.4565
A_2     C     0.1474     0.5561     0.4075
A_3     C     0.5484     0.8098     0.3053
A_0     C     0.1034     0.8174     0.0143
A_1     C     0.6839     0.9138     0.0875
A_2     C     0.5389     0.017     0.4347
A_1     C     0.2691     0.1561     0.9513
A_2     C     0.9679     0.6861     0.7047
A_1     C     0.2225     0.6131     0.9418
A_2     C     0.3024     0.6842     0.5385
A_0     C     0.0469     0.7294     0.6365
A_2     C     0.8714     0.192     0.5055
A_0     C     0.936     0.6779     0.8033
A_3     C     0.9207     0.6504     0.7624
A_0     C     0.0164     0.5589     0.8785
A_1     C     0.193     0.2971     0.5679
A_0     C     0.1225     0.2948     0.2156
A_1     C     0.8627     0.7465     0.54
A_1     C     0.2218     0.5446     0.6351
A_3     C     0.7864     0.9265     0.8382
A_0     C     0.0661     0.2184     0.2635
A_1     C     0.9528     0.7261     0.3191
A_3     C     0.5247     0.0383     0.2494
A_2     C     0.0079     0.0718     0.9363
A_2     C     0.3657     0.2751     0.598
A_1     C     0.0192     0.9026     0.5565
A_2     C     0.2522     0.4046     0.1375
A_3     C     0.5067     0.1907     0.5721
A_0     C     0.7185     0.6179     0.3333
A_2     C     0.4253     0.4541     0.8726
A_2     C     0.7445     0.8796     0.1625
A_1     C     0.0077     0.6884     0.5019
