MAT-59

loop_
_symmetry_equiv_pos_as_xyz
  x,y,z
_cell_length_a          24.3772
_cell_length_b          20.4054
_cell_length_c          49.6842
_cell_angle_alpha       90.0000
_cell_angle_beta        90.0000
_cell_angle_gamma       90.0000
loop_
_atom_site_label
_atom_site_type_symbol
_atom_site_fract_x
_atom_site_fract_y
_atom_site_fract_z
A_0     C     0.793     0.1551     0.6321
A_1     C     0.4984     0.2832     0.0102
A_3     C     0.0689     0.8616     0.7515
A_2     C     0.9157     0.9148     0.445
A_1     C     0.542     0.5501     0.3383
A_0     C     0.3834     0.4848     0.9414
A_1     C     0.4221     0.3697     0.4844
A_1     C     0.5438     0.0611     0.2979
A_0     C     0.7403     0.9589     0.7782
A_3     C     0.9247     0.5288     0.712
A_0     C     0.8065     0.2324     0.8073
A_0     C     0.9559     0.0186     0.6743
A_1     C     0.006     0.2143     0.8243
A_2     C     0.8378     0.7193     0.175
A_1     C     0.4802     0.6512     0.4406
A_0     C     0.7798     0.3413     0.0096
A_0     C     0.7967     0.508     0.6058
A_3     C     0.6807     0.973     0.1844
A_0     C     0.6182     0.0724     0.4434
A_0     C     0.5736     0.446     0.621
A_1     C     0.4715     0.9404     0.1825
A_3     C     0.1705     0.7572     0.9048
A_2     C     0.0274     0.1103     0.8315
A_1     C     0.8484     0.1046     0.8974
A_2     C     0.1685     0.9245     0.9123
A_2     C     0.2234     0.0559     0.6091
A_0     C     0.6236     0.6749     0.269
A_3     C     0.0167     0.6717     0.953
A_2     C     0.0553     0.1221     0.5221
A_1     C     0.0785     0.3999     0.5348
A_3     C     0.7835     0.4457     0.8091
A_3     C     0.6347     0.4588     0.4822
A_2     C     0.9377     0.7617     0.2192
A_0     C     0.7249     0.3516     0.9567
A_1     C     0.58     0.3636     0.1301
A_2     C     0.9846     0.8981     0.1773
A_3     C     0.4241     0.0391     0.1136
A_3     C     0.7761     0.2993     0.205
A_1     C     0.5734     0.5567     0.1743
A_2     C     0.7011     0.3053     0.8068
A_0     C     0.8577     0.8024     0.6436
A_0     C     0.9111     0.2626     0.3811
A_1     C     0.9764     0.8745     0.6082
A_1     C     0.7806     0.5699     0.8294
A_2     C     0.6636     0.8832     0.0208
A_3     C     0.5112     0.5829     0.0297
A_1     C     0.3314     0.209     0.9412
A_0     C     0.109     0.3812     0.2826
A_3     C     0.948     0.5324     0.7562
A_1     C     0.3677     0.4404     0.1258
A_1     C     0.9147     0.3218     0.4634
A_2     C     0.7527     0.9094     0.0996
A_3     C     0.9187     0.2657     0.4326
A_3     C     0.2236     0.1403     0.3725
A_3     C     0.7064     0.4979     0.5496
A_1     C     0.0689     0.1948     0.2373
A_2     C     0.9019     0.6402     0.6006
A_3     C     0.9934     0.8111     0.9088
A_2     C     0.3558     0.5291     0.2382
A_2     C     0.4983     0.458     0.2799
A_1     C     0.9833     0.5134     0.5198
A_1     C     0.4241     0.7376     0.9593
A_3     C     0.0374     0.7263     0.4501
A_0     C     0.7732     0.8394     0.3319
A_2     C     0.0317     0.1764     0.3612
A_0     C     0.2695     0.0328     0.2769
A_0     C     0.8435     0.8047     0.039
A_1     C     0.9352     0.5017     0.0817
A_1     C     0.5595     0.9317     0.724
A_2     C     0.3769     0.4025     0.655
A_2     C     0.379     0.5134     0.9342
A_3     C     0.6726     0.9677     0.804
A_1     C     0.9477     0.2657     0.0647
A_0     C     0.2704     0.2474     0.5363
A_2     C     0.5638     0.8588     0.1985
A_3     C     0.2418     0.266     0.5947
A_3     C     0.7609     0.4583     0.4738
A_0     C     0.6408     0.0418     0.1324
A_0     C     0.2076     0.1006     0.0612
A_2     C     0.4466     0.1221     0.3185
A_3     C     0.8398     0.0556     0.6228
A_1     C     0.2625     0.0044     0.6101
A_2     C     0.6794     0.7808     0.7111
A_3     C     0.3643     0.0377     0.8688
A_0     C     0.2111     0.4523     0.6752
A_0     C     0.669     0.4831     0.254
A_2     C     0.2034     0.5612     0.0918
A_2     C     0.781     0.1093     0.4104
A_1     C     0.5572     0.7594     0.6344
A_2     C     0.7171     0.0597     0.7822
A_2     C     0.5687     0.2054     0.812
A_3     C     0.4472     0.2966     0.0085
A_2     C     0.7117     0.709     0.1091
A_1     C     0.4946     0.9013     0.1662
A_2     C     0.0248     0.6682     0.6979
A_1     C     0.0547     0.1328     0.312
A_3     C     0.9647     0.5332     0.185
A_1     C     0.1614     0.9698     0.2304
A_1     C     0.702     0.8942     0.9057
A_0     C     0.3135     0.646     0.7918
A_3     C     0.1224     0.183     0.6313
A_1     C     0.693     0.4021     0.8621
A_2     C     0.9498     0.1572     0.58
A_0     C     0.1757     0.9271     0.5419
A_3     C     0.4557     0.8441     0.9934
A_0     C     0.8688     0.9118     0.9537
A_2     C     0.9061     0.0152     0.6824
A_0     C     0.3256     0.5245     0.8618
A_2     C     0.5675     0.2646     0.9714
A_3     C     0.1725     0.1087     0.2065
A_0     C     0.3217     0.1349     0.6793
A_2     C     0.4174     0.847     0.441
A_3     C     0.1918     0.3662     0.5898
A_3     C     0.6162     0.8929     0.1477
A_2     C     0.7606     0.8884     0.8514
A_0     C     0.1013     0.4149     0.389
A_3     C     0.3995     0.4584     0.2891
A_1     C     0.2845     0.6396     0.7264
A_2     C     0.6676     0.0507     0.6411
A_2     C     0.7855     0.2136     0.3058
A_2     C     0.4538     0.774     0.5532
A_1     C     0.3261     0.5591     0.0533
A_2     C     0.631     0.6788     0.967
A_3     C     0.2536     0.563     0.1648
A_0     C     0.7022     0.0846     0.0967
A_0     C     0.2521     0.6015     0.2092
A_2     C     0.5092     0.3608     0.3214
A_3     C     0.0359     0.2093     0.2515
A_0     C     0.1351     0.6431     0.9296
A_2     C     0.6245     0.6109     0.041
A_1     C     0.1405     0.9329     0.1491
A_3     C     0.4254     0.8571     0.9886
A_1     C     0.6266     0.9889     0.3015
A_2     C     0.0258     0.2474     0.5231
A_1     C     0.23     0.5021     0.2967
A_0     C     0.2599     0.5678     0.9739
A_0     C     0.8759     0.3169     0.8538
A_2     C     0.0509     0.6703     0.4159
A_3     C     0.8324     0.9506     0.6915
A_0     C     0.1123     0.7386     0.883
A_1     C     0.5765     0.6565     0.1138
A_3     C     0.7633     0.1665     0.2818
A_3     C     0.447     0.0099     0.1475
A_0     C     0.5849     0.6832     0.1905
A_0     C     0.7077     0.8959     0.9025
A_0     C     0.58     0.5801     0.9306
A_3     C     0.8183     0.648     0.4199
A_0     C     0.5531     0.1897     0.7597
A_0     C     0.2387     0.793     0.639
A_1     C     0.3461     0.2335     0.4049
A_2     C     0.3623     0.8422     0.1064
A_2     C     0.2075     0.335     0.2039
A_0     C     0.9064     0.8858     0.8061
A_2     C     0.1873     0.8278     0.7756
A_3     C     0.2278     0.6308     0.3943
A_1     C     0.4379     0.7477     0.2431
A_0     C     0.7434     0.6013     0.6098
A_0     C     0.683     0.2583     0.3101
A_3     C     0.9304     0.4563     0.9969
A_2     C     0.2232     0.8274     0.5865
A_3     C     0.4853     0.2744     0.6354
A_0     C     0.569     0.2024     0.4101
A_3     C     0.9128     0.1262     0.4842
A_2     C     0.6008     0.9917     0.2016
A_0     C     0.9238     0.948     0.6518
A_0     C     0.5557     0.1508     0.8473
A_1     C     0.3785     0.5497     0.5722
A_2     C     0.5295     0.7497     0.5727
A_2     C     0.7577     0.2825     0.7654
A_2     C     0.2451     0.3284     0.617
A_3     C     0.6918     0.7511     0.0457
A_3     C     0.0485     0.3846     0.294
A_3     C     0.6329     0.9068     0.8297
A_2     C     0.8152     0.3427     0.7427
A_0     C     0.0431     0.4869     0.225
A_1     C     0.9413     0.4092     0.9289
A_2     C     0.1695     0.9339     0.4296
A_2     C     0.0001     0.4368     0.6076
A_0     C     0.647     0.5974     0.0392
A_2     C     0.2066     0.8369     0.0557
A_3     C     0.7927     0.5265     0.9532
A_3     C     0.6259     0.6253     0.3922
A_3     C     0.3282     0.8487     0.8673
A_3     C     0.0699     0.4175     0.8077
A_2     C     0.5286     0.4183     0.3717
A_2     C     0.5412     0.4301     0.0543
A_2     C     0.5614     0.9444     0.8391
A_1     C     0.6146     0.6616     0.316
A_3     C     0.3929     0.4452     0.1617
A_3     C     0.2437     0.1412     0.6428
A_3     C     0.2605     0.6553     0.9864
A_0     C     0.9974     0.8647     0.5253
A_1     C     0.3478     0.9914     0.857
A_2     C     0.2348     0.0028     0.6068
A_2     C     0.3826     0.0374     0.5752
A_2     C     0.8444     0.6403     0.0086
A_0     C     0.3357     0.9619     0.4829
A_2     C     0.0173     0.8443     0.4124
A_3     C     0.8498     0.5308     0.5948
A_3     C     0.1733     0.9091     0.7991
A_1     C     0.6315     0.444     0.9966
A_3     C     0.6139     0.2491     0.6017
A_0     C     0.2212     0.6952     0.8273
A_3     C     0.2285     0.0012     0.5509
A_3     C     0.3353     0.5628     0.9197
A_3     C     0.0032     0.9006     0.5824
A_1     C     0.1075     0.753     0.9099
A_2     C     0.3158     0.0655     0.6891
A_0     C     0.2207     0.4763     0.5269
A_0     C     0.604     0.1893     0.6887
A_2     C     0.3537     0.9919     0.2446
A_2     C     0.0979     0.466     0.909
A_3     C     0.9076     0.2819     0.2651
A_0     C     0.2293     0.935     0.3228
A_0     C     0.3463     0.9065     0.5028
A_0     C     0.2912     0.7599     0.0256
A_1     C     0.8475     0.6524     0.3583
A_0     C     0.762     0.906     0.4863
A_3     C     0.8757     0.2656     0.1793
A_1     C     0.7139     0.1255     0.6535
A_0     C     0.9009     0.9009     0.3959
A_3     C     0.4205     0.9761     0.8293
A_2     C     0.5779     0.3799     0.1481
A_3     C     0.0117     0.0126     0.8156
A_3     C     0.3855     0.3322     0.0169
A_0     C     0.9426     0.5541     0.5555
A_2     C     0.9551     0.0404     0.4352
A_1     C     0.1718     0.1132     0.8006
A_3     C     0.0089     0.6122     0.2948
A_0     C     0.0504     0.7234     0.4887
A_0     C     0.0607     0.7738     0.4658
A_2     C     0.203     0.4772     0.72
A_3     C     0.2758     0.4467     0.8723
A_3     C     0.3618     0.7309     0.9502
A_1     C     0.9239     0.5463     0.8042
A_2     C     0.1063     0.4565     0.4348
A_0     C     0.1444     0.8379     0.5353
A_3     C     0.3004     0.1577     0.3355
A_0     C     0.0163     0.7555     0.5213
A_3     C     0.6907     0.7716     0.9163
A_3     C     0.6288     0.3898     0.1433
A_1     C     0.5149     0.9377     0.2996
A_2     C     0.889     0.2687     0.8286
A_1     C     0.9687     0.7577     0.3477
A_3     C     0.6149     0.8161     0.1574
A_1     C     0.1509     0.1134     0.5515
A_1     C     0.0308     0.3342     0.4417
A_0     C     0.6324     0.5885     0.2135
A_0     C     0.826     0.8499     0.4419
A_2     C     0.9816     0.2971     0.9277
A_1     C     0.3353     0.0783     0.3256
A_0     C     0.0577     0.1839     0.5875
A_2     C     0.2387     0.8946     0.2181
A_0     C     0.7274     0.4786     0.6488
A_1     C     0.0131     0.5541     0.163
A_2     C     0.5861     0.749     0.8765
A_2     C     0.4047     0.0816     0.3327
A_0     C     0.4826     0.7168     0.1141
A_1     C     0.1802     0.5747     0.6485
A_3     C     0.0949     0.3023     0.1397
A_0     C     0.1435     0.4234     0.4508
A_1     C     0.2326     0.504     0.826
A_0     C     0.6593     0.8     0.1301
A_0     C     0.6531     0.3817     0.7179
A_1     C     0.2821     0.9908     0.3308
A_1     C     0.2473     0.6495     0.096
A_1     C     0.0462     0.6121     0.7532
A_0     C     0.7998     0.1427     0.1945
A_2     C     0.7324     0.7155     0.8389
A_0     C     0.0784     0.2651     0.2513
A_1     C     0.5587     0.0671     0.7733
A_0     C     0.3119     0.3019     0.9564
A_0     C     0.5812     0.0683     0.3604
A_0     C     0.7698     0.4358     0.457
A_1     C     0.546     0.1975     0.0182
A_2     C     0.547     0.2782     0.2814
A_3     C     0.8487     0.1278     0.3012
A_2     C     0.1312     0.2232     0.5792
A_0     C     0.5176     0.5316     0.1533
A_0     C     0.713     0.1953     0.2376
A_1     C     0.6659     0.095     0.7197
A_3     C     0.3503     0.709     0.2342
A_1     C     0.113     0.067     0.9317
A_2     C     0.6226     0.6209     0.2657
A_2     C     0.9819     0.3899     0.0069
A_2     C     0.7917     0.734     0.7347
A_3     C     0.4633     0.6956     0.9127
A_2     C     0.086     0.3833     0.8175
A_2     C     0.0979     0.8884     0.1237
A_3     C     0.1005     0.3327     0.9854
A_0     C     0.3387     0.6207     0.2908
A_0     C     0.8364     0.7744     0.3119
A_2     C     0.1836     0.6441     0.4292
A_2     C     0.8547     0.6064     0.7819
A_0     C     0.6349     0.4     0.3117
A_2     C     0.7225     0.1758     0.1495
A_1     C     0.0125     0.1997     0.9131
A_1     C     0.7979     0.6587     0.3522
A_3     C     0.6286     0.0063     0.6352
A_0     C     0.9864     0.1281     0.9661
A_2     C     0.3586     0.134     0.0837
A_2     C     0.5667     0.4777     0.0084
A_3     C     0.2287     0.851     0.8909
A_0     C     0.4795     0.7161     0.6953
A_0     C     0.8498     0.6278     0.2486
A_0     C     0.9292     0.927     0.4883
A_0     C     0.6866     0.6343     0.8102
A_2     C     0.9932     0.3838     0.2996
A_3     C     0.1769     0.2843     0.2375
A_1     C     0.2753     0.5309     0.1913
A_3     C     0.3859     0.3005     0.1232
A_2     C     0.188     0.3428     0.9172
A_2     C     0.457     0.8712     0.7051
A_1     C     0.0515     0.4305     0.59
A_1     C     0.8752     0.5371     0.5127
A_1     C     0.9978     0.6899     0.2647
A_3     C     0.9351     0.4953     0.7617
A_3     C     0.8211     0.012     0.8096
A_3     C     0.5818     0.0159     0.5859
A_0     C     0.3944     0.3293     0.2415
A_2     C     0.1851     0.3885     0.2385
A_0     C     0.6343     0.8095     0.2967
A_2     C     0.5372     0.9259     0.705
A_2     C     0.6425     0.7099     0.3426
A_0     C     0.0713     0.5425     0.4105
A_3     C     0.3694     0.3906     0.669
A_2     C     0.14     0.0542     0.0769
A_1     C     0.9384     0.1503     0.1073
A_2     C     0.5251     0.5642     0.7937
A_2     C     0.614     0.1463     0.1223
A_1     C     0.439     0.0471     0.6404
A_1     C     0.6074     0.5302     0.26
A_1     C     0.8331     0.5316     0.6974
A_0     C     0.9811     0.9071     0.2818
A_0     C     0.1412     0.89     0.983
A_3     C     0.6953     0.6505     0.8713
A_3     C     0.1502     0.6286     0.6551
A_3     C     0.4182     0.3094     0.1746
A_1     C     0.7569     0.1871     0.717
A_1     C     0.2648     0.1183     0.9569
A_2     C     0.3501     0.5312     0.4833
A_0     C     0.2959     0.272     0.7843
A_1     C     0.0155     0.6758     0.0563
A_1     C     0.3265     0.0015     0.5556
A_3     C     0.4795     0.4017     0.3749
A_2     C     0.2059     0.7047     0.426
A_3     C     0.9585     0.3192     0.2093
A_2     C     0.3115     0.8405     0.5704
A_2     C     0.2285     0.3307     0.1338
A_1     C     0.8767     0.6517     0.1763
A_0     C     0.8365     0.1854     0.8701
A_3     C     0.9135     0.8124     0.1401
A_3     C     0.8009     0.5726     0.0234
A_0     C     0.3045     0.5949     0.7341
A_1     C     0.0609     0.9665     0.068
A_2     C     0.0401     0.4953     0.139
A_3     C     0.5125     0.6209     0.8359
A_0     C     0.3772     0.0972     0.7926
A_0     C     0.0307     0.9226     0.984
A_2     C     0.6611     0.3179     0.2013
A_2     C     0.7069     0.7095     0.8675
A_0     C     0.1614     0.5848     0.1429
A_2     C     0.6594     0.3244     0.9226
A_0     C     0.8044     0.0893     0.5752
A_0     C     0.6917     0.7951     0.3629
A_3     C     0.121     0.6006     0.7585
A_2     C     0.4416     0.5445     0.6357
A_2     C     0.8326     0.7621     0.877
A_0     C     0.987     0.1843     0.7123
A_3     C     0.0362     0.9796     0.2918
A_0     C     0.0263     0.4227     0.9953
A_1     C     0.0092     0.1318     0.8739
A_3     C     0.6472     0.4142     0.182
A_1     C     0.9552     0.5402     0.0604
A_2     C     0.551     0.8143     0.2121
A_3     C     0.7166     0.2945     0.4684
A_2     C     0.8397     0.4043     0.6559
A_2     C     0.8303     0.8878     0.0809
A_1     C     0.3216     0.0781     0.757
A_1     C     0.6439     0.227     0.3233
A_0     C     0.3859     0.6644     0.7079
A_3     C     0.3033     0.6545     0.7183
A_0     C     0.1722     0.6877     0.5038
A_3     C     0.5321     0.2304     0.3733
A_0     C     0.3606     0.4242     0.1383
A_1     C     0.7825     0.1559     0.6998
A_2     C     0.4886     0.318     0.6285
A_1     C     0.2719     0.3112     0.9449
A_1     C     0.8817     0.201     0.694
A_2     C     0.5695     0.2811     0.7242
A_2     C     0.9721     0.7513     0.3097
A_0     C     0.049     0.4384     0.7813
A_3     C     0.6317     0.5603     0.1773
A_3     C     0.7356     0.4343     0.9978
A_2     C     0.8564     0.89     0.6567
A_0     C     0.933     0.7824     0.8339
A_0     C     0.9401     0.0967     0.6582
A_2     C     0.9911     0.5337     0.635
A_3     C     0.5166     0.0766     0.7981
A_1     C     0.7554     0.2873     0.5441
A_3     C     0.5999     0.375     0.2341
A_3     C     0.0826     0.2036     0.8949
A_2     C     0.023     0.5466     0.1185
A_0     C     0.0405     0.9678     0.9689
A_3     C     0.7009     0.036     0.1339
A_2     C     0.7956     0.1319     0.1945
A_0     C     0.569     0.2792     0.9923
A_1     C     0.4021     0.4278     0.2696
A_3     C     0.8983     0.942     0.303
A_1     C     0.0246     0.9389     0.0549
A_3     C     0.6669     0.5575     0.3915
A_3     C     0.7029     0.1422     0.7229
A_1     C     0.2047     0.4181     0.2055
A_2     C     0.9642     0.9649     0.1344
A_1     C     0.3169     0.0956     0.499
A_3     C     0.8444     0.157     0.1892
A_3     C     0.0538     0.0402     0.0111
A_2     C     0.0881     0.1695     0.2904
A_3     C     0.0426     0.465     0.0182
A_2     C     0.9445     0.7359     0.098
A_2     C     0.1505     0.0648     0.8363
A_0     C     0.7132     0.0759     0.3844
A_3     C     0.9305     0.8343     0.3279
A_0     C     0.633     0.6681     0.6249
A_0     C     0.9006     0.7256     0.9342
A_0     C     0.4639     0.4999     0.2919
A_0     C     0.5917     0.5618     0.0479
A_0     C     0.4284     0.0264     0.2273
A_0     C     0.9649     0.6069     0.8771
A_0     C     0.1889     0.8827     0.1276
A_0     C     0.8821     0.8786     0.93
A_0     C     0.1003     0.5333     0.1124
A_0     C     0.109     0.7272     0.2181
A_0     C     0.2612     0.8761     0.6003
A_0     C     0.9837     0.0288     0.6662
A_0     C     0.6757     0.6335     0.355
A_0     C     0.6132     0.6811     0.7013
A_0     C     0.7225     0.9069     0.6739
A_0     C     0.8985     0.3623     0.0255
A_0     C     0.2413     0.9698     0.9449
A_0     C     0.9844     0.1112     0.6701
A_0     C     0.937     0.7784     0.5717
A_0     C     0.7494     0.71     0.6806
A_0     C     0.5473     0.8607     0.2724
A_0     C     0.0647     0.5384     0.9245
A_0     C     0.9229     0.9818     0.3093
A_0     C     0.8945     0.5818     0.5979
A_0     C     0.3099     0.6903     0.8708
A_0     C     0.5785     0.8323     0.9398
A_0     C     0.9263     0.8405     0.8243
A_0     C     0.6406     0.9409     0.5754
A_0     C     0.0637     0.4472     0.2403
A_0     C     0.8808     0.731     0.2642
A_0     C     0.8206     0.6717     0.3862
A_0     C     0.0581     0.6698     0.3903
A_0     C     0.7025     0.4359     0.2187
A_0     C     0.0942     0.5047     0.2154
A_0     C     0.0549     0.6091     0.7115
A_0     C     0.7808     0.7298     0.9908
A_0     C     0.5725     0.1098     0.3143
A_0     C     0.8112     0.5054     0.9457
A_0     C     0.7253     0.5328     0.5865
A_0     C     0.4606     0.8425     0.3405
A_0     C     0.9205     0.6834     0.82
A_0     C     0.9997     0.2575     0.3814
A_0     C     0.2473     0.0291     0.7054
A_0     C     0.7908     0.8904     0.2336
A_0     C     0.1666     0.8712     0.6998
A_0     C     0.933     0.3714     0.4505
A_0     C     0.0896     0.9261     0.0375
A_0     C     0.1526     0.5662     0.7067
A_0     C     0.5706     0.0347     0.6173
A_0     C     0.7984     0.0193     0.7941
A_0     C     0.9676     0.0403     0.8645
A_0     C     0.9139     0.1055     0.8525
A_0     C     0.9597     0.5092     0.7742
A_0     C     0.0108     0.2739     0.9395
A_0     C     0.0353     0.9365     0.041
A_0     C     0.6107     0.1447     0.0187
A_0     C     0.2661     0.2242     0.6487
A_0     C     0.4233     0.3989     0.38
A_0     C     0.7567     0.5393     0.7527
A_0     C     0.1567     0.3768     0.7162
A_0     C     0.5763     0.5554     0.117
A_0     C     0.4093     0.8544     0.8573
A_0     C     0.1521     0.5571     0.3546
A_0     C     0.5305     0.7289     0.0227
A_0     C     0.5267     0.5957     0.5966
A_0     C     0.9666     0.6146     0.8792
A_0     C     0.3525     0.1576     0.2474
A_0     C     0.8429     0.0447     0.229
A_0     C     0.3524     0.5219     0.8145
A_0     C     0.9619     0.3913     0.7884
A_0     C     0.9744     0.777     0.374
A_0     C     0.5834     0.9582     0.6621
A_0     C     0.65     0.461     0.6888
A_0     C     0.4369     0.9213     0.7718
A_0     C     0.114     0.5659     0.1364
A_0     C     0.1656     0.6252     0.4215
A_0     C     0.8916     0.9254     0.0543
A_0     C     0.6104     0.5547     0.0552
A_0     C     0.2735     0.6221     0.879
A_0     C     0.1735     0.0012     0.2794
A_0     C     0.3812     0.0423     0.7734
A_0     C     0.9992     0.0706     0.817
A_0     C     0.5336     0.1773     0.405
A_0     C     0.7928     0.5437     0.1183
A_0     C     0.3977     0.1375     0.6684
A_0     C     0.9413     0.8316     0.6036
A_0     C     0.3927     0.212     0.5182
A_0     C     0.2731     0.0148     0.7158
A_0     C     0.4637     0.455     0.9614
A_0     C     0.935     0.8459     0.1352
A_0     C     0.6724     0.7925     0.5584
A_0     C     0.0197     0.4366     0.8657
A_0     C     0.8314     0.2132     0.5344
A_0     C     0.6545     0.8716     0.0851
A_0     C     0.4045     0.3119     0.8265
A_0     C     0.9022     0.9639     0.5021
A_0     C     0.8908     0.7433     0.8572
A_0     C     0.7261     0.0504     0.7679
A_0     C     0.6652     0.8095     0.4525
A_0     C     0.2902     0.4266     0.1357
A_0     C     0.3619     0.3458     0.9761
A_0     C     0.3117     0.5486     0.5979
A_0     C     0.0057     0.48     0.0
A_0     C     0.5036     0.3503     0.4983
A_0     C     0.9784     0.7379     0.4237
A_0     C     0.5961     0.686     0.6424
A_0     C     0.4554     0.6849     0.3791
A_0     C     0.3483     0.8259     0.8575
A_0     C     0.2409     0.1503     0.7211
A_0     C     0.9418     0.3841     0.1929
A_0     C     0.8302     0.6173     0.698
A_0     C     0.9016     0.3372     0.4134
A_0     C     0.8236     0.537     0.1129
A_0     C     0.9768     0.7381     0.8779
A_0     C     0.088     0.3621     0.6547
A_0     C     0.4636     0.7689     0.8905
A_0     C     0.2603     0.4258     0.0719
A_0     C     0.4603     0.5864     0.7744
A_0     C     0.8481     0.8083     0.0494
A_0     C     0.5372     0.4302     0.2475
A_0     C     0.9323     0.8293     0.5327
A_0     C     0.9046     0.2395     0.1104
A_0     C     0.4765     0.9556     0.7303
A_0     C     0.8656     0.2667     0.2146
A_0     C     0.0036     0.0166     0.7599
A_0     C     0.9273     0.6906     0.9431
A_0     C     0.9104     0.5475     0.2971
A_0     C     0.7916     0.8971     0.2033
A_0     C     0.1861     0.9431     0.5718
A_0     C     0.0942     0.7364     0.0068
A_0     C     0.7613     0.4399     0.8524
A_0     C     0.1524     0.1669     0.2654
A_0     C     0.3931     0.2123     0.9574
A_0     C     0.7154     0.4296     0.6487
A_0     C     0.4563     0.3906     0.9837
A_0     C     0.0607     0.9097     0.6256
A_0     C     0.4699     0.0511     0.4077
A_0     C     0.0882     0.064     0.9061
A_0     C     0.2293     0.3502     0.5644
A_0     C     0.51     0.7955     0.1639
A_0     C     0.2447     0.0564     0.5617
A_0     C     0.4715     0.1419     0.4559
A_0     C     0.9687     0.7976     0.9258
A_0     C     0.3856     0.008     0.4282
A_0     C     0.6457     0.4358     0.0365
A_0     C     0.0148     0.9919     0.3935
A_0     C     0.052     0.8899     0.6334
A_0     C     0.1709     0.4069     0.3803
A_0     C     0.6571     0.027     0.8113
A_0     C     0.8873     0.1063     0.5375
A_0     C     0.3077     0.6829     0.496
A_0     C     0.8608     0.2126     0.6584
A_0     C     0.3232     0.329     0.7372
A_0     C     0.2166     0.9584     0.3264
A_0     C     0.3081     0.1823     0.9461
A_0     C     0.7934     0.1252     0.5415
A_0     C     0.2866     0.388     0.0188
A_0     C     0.9011     0.0981     0.9255
A_0     C     0.8992     0.1741     0.6022
A_0     C     0.0508     0.6974     0.4663
A_0     C     0.4909     0.2768     0.0787
A_0     C     0.428     0.5967     0.6773
A_0     C     0.5184     0.4729     0.1615
A_0     C     0.9701     0.8339     0.7217
A_0     C     0.1734     0.2284     0.0437
A_0     C     0.657     0.8242     0.3677
A_0     C     0.2354     0.3523     0.2109
A_0     C     0.0905     0.5933     0.6853
A_0     C     0.9882     0.9992     0.6181
A_0     C     0.782     0.9619     0.8827
A_0     C     0.6341     0.4128     0.294
A_0     C     0.37     0.6437     0.9262
A_0     C     0.0354     0.5143     0.1033
A_0     C     0.5214     0.7944     0.3375
A_0     C     0.9376     0.7818     0.6852
