MAT-52

loop_
_symmetry_equiv_pos_as_xyz
  x,y,z
_cell_length_a          37.4586
_cell_length_b          35.8631
_cell_length_c          47.966
_cell_angle_alpha       90.0000
_cell_angle_beta        90.0000
_cell_angle_gamma       90.0000
loop_
_atom_site_label
_atom_site_type_symbol
_atom_site_fract_x
_atom_site_fract_y
_atom_site_fract_z
A_1     C     0.713     0.0329     0.3086
A_0     C     0.0075     0.6237     0.4616
A_0     C     0.4335     0.9831     0.0761
A_2     C     0.6621     0.5106     0.2814
A_1     C     0.8287     0.3544     0.911
A_1     C     0.0868     0.0262     0.2973
A_3     C     0.2793     0.2855     0.6778
A_3     C     0.0462     0.4628     0.2034
A_0     C     0.4722     0.8221     0.2419
A_3     C     0.8546     0.3197     0.8008
A_1     C     0.359     0.8742     0.599
A_2     C     0.7424     0.8682     0.487
A_1     C     0.7201     0.2806     0.1632
A_0     C     0.8548     0.2089     0.5593
A_3     C     0.4176     0.3337     0.0944
A_0     C     0.3425     0.8066     0.88
A_2     C     0.396     0.1658     0.2762
A_1     C     0.8549     0.9634     0.0513
A_2     C     0.4328     0.5317     0.7821
A_0     C     0.9415     0.3976     0.1999
A_3     C     0.2948     0.4023     0.3373
A_2     C     0.5743     0.4751     0.4033
A_2     C     0.2835     0.6801     0.6798
A_0     C     0.7155     0.3564     0.2844
A_3     C     0.3705     0.6988     0.8109
A_0     C     0.4123     0.9094     0.8258
A_0     C     0.6018     0.2105     0.4026
A_2     C     0.5147     0.9875     0.026
A_0     C     0.8322     0.761     0.6414
A_0     C     0.0538     0.1415     0.4528
A_0     C     0.0373     0.4098     0.8364
A_3     C     0.2636     0.4306     0.76
A_2     C     0.7575     0.1666     0.009
A_1     C     0.0764     0.133     0.4632
A_0     C     0.2916     0.0723     0.5032
A_2     C     0.2526     0.4601     0.8743
A_0     C     0.9597     0.4302     0.9634
A_1     C     0.1315     0.3474     0.7132
A_1     C     0.0642     0.9338     0.2988
A_0     C     0.8035     0.2249     0.1693
A_1     C     0.5054     0.3021     0.9906
A_1     C     0.8794     0.1391     0.4586
A_2     C     0.3264     0.0778     0.1678
A_3     C     0.6194     0.9514     0.0073
A_1     C     0.784     0.3258     0.268
A_1     C     0.3814     0.8032     0.3148
A_3     C     0.671     0.8122     0.1135
A_2     C     0.9189     0.8277     0.1961
A_0     C     0.8256     0.3093     0.6857
A_2     C     0.8194     0.1978     0.4722
A_3     C     0.2768     0.3209     0.7304
A_0     C     0.6916     0.9942     0.2141
A_2     C     0.1125     0.1071     0.1713
A_1     C     0.4432     0.0612     0.8408
A_3     C     0.7688     0.1221     0.3418
A_0     C     0.3135     0.1691     0.448
A_3     C     0.7589     0.3651     0.8005
A_1     C     0.202     0.4172     0.956
A_2     C     0.0283     0.2103     0.3424
A_2     C     0.8907     0.2471     0.0645
A_2     C     0.3382     0.8722     0.7296
A_1     C     0.0899     0.9684     0.1629
A_1     C     0.841     0.003     0.327
A_3     C     0.189     0.8737     0.6756
A_1     C     0.8855     0.9573     0.0375
A_1     C     0.4448     0.7734     0.0628
A_1     C     0.2918     0.2573     0.7973
A_1     C     0.7166     0.8142     0.9857
A_2     C     0.9988     0.0897     0.337
A_0     C     0.9403     0.8034     0.9498
A_3     C     0.4987     0.1673     0.1038
A_0     C     0.0614     0.2086     0.6528
A_2     C     0.2271     0.4081     0.9833
A_3     C     0.0575     0.6426     0.8314
A_0     C     0.2473     0.8935     0.9571
A_1     C     0.512     0.481     0.761
A_3     C     0.735     0.6092     0.3558
A_0     C     0.5712     0.4793     0.6455
A_3     C     0.2561     0.3393     0.2312
A_0     C     0.6151     0.4995     0.8417
A_3     C     0.3738     0.6338     0.9876
A_3     C     0.7051     0.9148     0.0966
A_0     C     0.9803     0.1441     0.1254
A_1     C     0.4376     0.9884     0.4238
A_2     C     0.1101     0.9959     0.5676
A_2     C     0.205     0.0078     0.8312
A_3     C     0.0295     0.6985     0.8504
A_3     C     0.882     0.5123     0.4361
A_3     C     0.333     0.9433     0.5274
A_0     C     0.5553     0.4931     0.693
A_3     C     0.6935     0.7861     0.6305
A_0     C     0.4514     0.4398     0.5507
A_3     C     0.2335     0.6755     0.5771
A_2     C     0.5436     0.3206     0.0328
A_0     C     0.8577     0.3735     0.6049
A_1     C     0.7717     0.6604     1.0
A_2     C     0.1482     0.5571     0.6208
A_2     C     0.1455     0.3661     0.354
A_2     C     0.6885     0.7839     0.0101
A_0     C     0.7332     0.7828     0.386
A_2     C     0.2939     0.2415     0.1141
A_0     C     0.5863     0.8811     0.9413
A_3     C     0.0424     0.4117     0.1008
A_3     C     0.1999     0.4928     0.7974
A_3     C     0.3302     0.0908     0.6338
A_1     C     0.6158     0.1074     0.379
A_3     C     0.7586     0.9378     0.5628
A_2     C     0.1349     0.706     0.1135
A_3     C     0.0127     0.7334     0.4119
A_3     C     0.7165     0.7315     0.7251
A_2     C     0.5679     0.2267     0.4976
A_3     C     0.5122     0.2211     0.4432
A_1     C     0.7843     0.2069     0.5428
A_3     C     0.4493     0.4961     0.8006
A_2     C     0.9305     0.5734     0.6496
A_1     C     0.2261     0.548     0.5058
A_0     C     0.2173     0.9066     0.3118
A_1     C     0.2046     0.5528     0.0384
A_3     C     0.8064     0.6989     0.1843
A_3     C     0.5842     0.0189     0.3767
A_1     C     0.8231     0.6942     0.4677
A_1     C     0.4109     0.3152     0.8626
A_3     C     0.8959     0.0741     0.1173
A_2     C     0.933     0.25     0.7141
A_2     C     0.7876     0.6195     0.6659
A_2     C     0.377     0.8319     0.4719
A_2     C     0.8582     0.7478     0.6488
A_0     C     0.1191     0.3627     0.6382
A_3     C     0.5722     0.7875     0.0739
A_2     C     0.4512     0.3528     0.0778
A_1     C     0.4984     0.0431     0.3107
A_1     C     0.6753     0.8433     0.0092
A_0     C     0.8466     0.7231     0.5868
A_3     C     0.9206     0.0769     0.7302
A_3     C     0.2607     0.4823     0.7267
A_0     C     0.8305     0.9925     0.7809
A_1     C     0.9363     0.6581     0.8947
A_0     C     0.0306     0.4249     0.0776
A_1     C     0.2582     0.621     0.4598
A_1     C     0.77     0.842     0.4435
A_0     C     0.5036     0.0607     0.1456
A_2     C     0.4329     0.426     0.7998
A_3     C     0.469     0.0219     0.5341
A_0     C     0.9567     0.998     0.1025
A_1     C     0.269     0.2309     0.0948
A_1     C     0.4723     0.408     0.4964
A_3     C     0.9679     0.4004     0.1281
A_2     C     0.3053     0.9229     0.4966
A_1     C     0.0281     0.3616     0.9439
A_1     C     0.6088     0.8627     0.3674
A_2     C     0.8043     0.3713     0.7786
A_0     C     0.6918     0.8581     0.5026
A_1     C     0.6011     0.9428     0.7138
A_3     C     0.6823     0.1877     0.8286
A_2     C     0.7607     0.6622     0.0453
A_1     C     0.5242     0.7688     0.8586
A_2     C     0.2629     0.4266     0.1817
A_2     C     0.4751     0.3786     0.9514
A_2     C     0.3353     0.6592     0.9131
A_0     C     0.2183     0.842     0.5902
A_1     C     0.6942     0.7484     0.1011
A_1     C     0.208     0.8275     0.2281
A_2     C     0.3068     0.5177     0.8354
A_3     C     0.0056     0.3684     0.4202
A_3     C     0.3059     0.4927     0.5805
A_2     C     0.6444     0.0429     0.715
A_3     C     0.6559     0.3211     0.1107
A_2     C     0.8158     0.5832     0.646
A_2     C     0.7733     0.4608     0.2888
A_0     C     0.617     0.3353     0.5244
A_2     C     0.8607     0.4409     0.8859
A_0     C     0.1921     0.543     0.9965
A_0     C     0.6838     0.5845     0.2615
A_1     C     0.7697     0.5516     0.7919
A_1     C     0.416     0.9873     0.6299
A_0     C     0.7211     0.6926     0.7365
A_1     C     0.5519     0.0994     0.3031
A_2     C     0.0079     0.8834     0.0793
A_3     C     0.2534     0.2293     0.9974
A_2     C     0.3468     0.4025     0.3888
A_2     C     0.9337     0.6187     0.0995
A_3     C     0.1556     0.4031     0.8246
A_2     C     0.3005     0.8164     0.5062
A_3     C     0.4589     0.3328     0.4281
A_3     C     0.4833     0.9487     0.2121
A_2     C     0.1843     0.7251     0.691
A_3     C     0.2437     0.7961     0.9141
A_2     C     0.8147     0.5967     0.037
A_0     C     0.3998     0.8658     0.0559
A_2     C     0.7531     0.9217     0.0288
A_2     C     0.6871     0.1088     0.8908
A_2     C     0.2663     0.9604     0.6071
A_1     C     0.1693     0.8169     0.1529
A_1     C     0.344     0.6656     0.5247
A_2     C     0.7774     0.064     0.7496
A_1     C     0.8009     0.1778     0.2315
A_2     C     0.0964     0.6787     0.556
A_2     C     0.4939     0.2284     0.0973
A_3     C     0.1472     0.9629     0.2446
A_3     C     0.9164     0.8762     0.3366
A_0     C     0.9121     0.1047     0.6666
A_2     C     0.074     0.609     0.3021
A_3     C     0.9457     0.8852     0.6286
A_1     C     0.4285     0.834     0.6592
A_0     C     0.4802     0.6674     0.1886
A_1     C     0.4056     0.2151     0.4906
A_3     C     0.8309     0.9467     0.3293
A_2     C     0.9694     0.5566     0.2899
A_3     C     0.8911     0.1123     0.8528
A_3     C     0.6807     0.7568     0.9347
A_2     C     0.1043     0.6162     0.7247
A_2     C     0.0181     0.846     0.7073
A_0     C     0.8784     0.466     0.4383
A_3     C     0.5595     0.332     0.5813
A_0     C     0.6029     0.1125     0.9568
A_1     C     0.4588     0.3531     0.516
A_0     C     0.1777     0.2727     0.1017
A_2     C     0.2858     0.7733     0.8442
A_3     C     0.513     0.6271     0.7328
A_1     C     0.2636     0.0067     0.2496
A_1     C     0.6419     0.403     0.723
A_1     C     0.547     0.7104     0.1171
A_1     C     0.6327     0.7764     0.7555
A_0     C     0.6195     0.929     0.5311
A_2     C     0.6879     0.1811     0.283
A_1     C     0.3782     0.4551     0.319
A_0     C     0.9775     0.6307     0.5626
A_0     C     0.3719     0.7499     0.0764
A_2     C     0.9356     0.2241     0.0813
A_2     C     0.2446     0.2168     0.3564
A_3     C     0.7569     0.9166     0.2902
A_3     C     0.2576     0.8756     0.868
A_1     C     0.3694     0.2318     0.4564
A_0     C     0.5066     0.4742     0.476
A_3     C     0.5615     0.5668     0.7135
A_2     C     0.9268     0.4353     0.1207
A_0     C     0.6325     0.6275     0.9167
A_3     C     0.2819     0.7508     0.0176
A_0     C     0.6091     0.5752     0.5779
A_2     C     0.5061     0.9946     0.7993
A_2     C     0.6029     0.4955     0.5343
A_3     C     0.6273     0.8158     0.5353
A_0     C     0.8307     0.583     0.6265
A_3     C     0.3707     0.1285     0.4397
A_0     C     0.8738     0.0685     0.2816
A_1     C     0.2387     0.2826     0.1667
A_3     C     0.415     0.3638     0.8081
A_0     C     0.6596     0.2911     0.0333
A_0     C     0.4915     0.6955     0.498
A_1     C     0.142     0.6811     0.9447
A_0     C     0.7112     0.1139     0.0525
A_0     C     0.809     0.6127     0.6596
A_1     C     0.5695     0.0026     0.839
A_3     C     0.362     0.7193     0.4319
A_3     C     0.6534     0.6898     0.9167
A_1     C     0.4141     0.9923     0.5947
A_2     C     0.7911     0.6215     0.3278
A_2     C     0.8754     0.813     0.5816
A_0     C     0.8968     0.476     0.157
A_1     C     0.8825     0.2814     0.4918
A_2     C     0.5948     0.2164     0.2272
A_2     C     0.8078     0.7163     0.0315
A_2     C     0.3609     0.6091     0.2341
A_0     C     0.146     0.4091     0.4908
A_2     C     0.9345     0.2334     0.3967
A_2     C     0.6546     0.5461     0.7569
A_2     C     0.9155     0.7101     0.6266
A_1     C     0.1002     0.1801     0.6008
A_1     C     0.2726     0.2051     0.2162
A_1     C     0.9068     0.2094     0.3307
A_3     C     0.229     0.8019     0.5562
A_2     C     0.725     0.2987     0.7578
A_1     C     0.6628     0.1727     0.5597
A_3     C     0.4685     0.7963     0.9002
A_2     C     0.9495     0.243     0.6241
A_1     C     0.57     0.1742     0.5342
A_3     C     0.2017     0.8075     0.1083
A_3     C     0.8056     0.9163     0.4122
A_0     C     0.909     0.0534     0.4472
A_1     C     0.7212     0.0482     0.1785
A_0     C     0.9529     0.3463     0.052
A_0     C     0.123     0.0984     0.5309
A_3     C     0.0066     0.7857     0.3583
A_2     C     0.2113     0.8209     0.2898
A_1     C     0.4308     0.2682     0.5918
A_1     C     0.0618     0.3677     0.24
A_0     C     0.8235     0.7914     0.0313
A_2     C     0.5532     0.1735     0.081
A_0     C     0.6485     0.3865     0.3413
A_1     C     0.304     0.8699     0.6407
A_0     C     0.6099     0.7975     0.5126
A_2     C     0.6418     0.2427     0.5054
A_2     C     0.79     0.9122     0.9933
A_3     C     0.6516     0.0746     0.7235
A_1     C     0.2163     0.7096     0.7494
A_0     C     0.3486     0.5843     0.9827
A_1     C     0.8006     0.2394     0.9866
A_2     C     0.9848     0.7131     0.6114
A_2     C     0.723     0.6519     0.5006
A_3     C     0.1746     0.383     0.3675
A_1     C     0.1409     0.4072     0.4437
A_2     C     0.9238     0.4806     0.4559
A_0     C     0.681     0.7088     0.7186
A_0     C     0.1163     0.5641     0.2611
A_3     C     0.9131     0.3049     0.6714
A_1     C     0.5339     0.9272     0.5167
A_3     C     0.1243     0.5329     0.9484
A_0     C     0.9396     0.4102     0.5805
A_1     C     0.2038     0.2226     0.7792
A_1     C     0.1985     0.7865     0.0643
A_0     C     0.5802     0.0328     0.4014
A_3     C     0.3522     0.4087     0.1417
A_0     C     0.3103     0.0293     0.9191
A_0     C     0.3906     0.3962     0.3722
A_3     C     0.4435     0.2036     0.7666
A_2     C     0.8337     0.1947     0.1864
A_0     C     0.2995     0.3898     0.6538
A_1     C     0.7423     0.6939     0.6666
A_3     C     0.687     0.0613     0.6686
A_2     C     0.8638     0.1839     0.5915
A_2     C     0.9611     0.4447     0.5167
A_1     C     0.1403     0.1442     0.4722
A_0     C     0.5371     0.1947     0.3387
A_1     C     0.6334     0.2982     0.5889
A_1     C     0.7677     0.5305     0.4742
A_2     C     0.5202     0.6363     0.0924
A_0     C     0.3634     0.2565     0.2942
A_3     C     0.3529     0.2564     0.7889
A_3     C     0.1307     0.7946     0.7551
A_2     C     0.3822     0.5698     0.3124
A_1     C     0.5173     0.2877     0.779
A_1     C     0.1323     0.8623     0.8854
A_0     C     0.5211     0.0848     0.0116
A_0     C     0.3911     0.3502     0.5142
A_1     C     0.9935     0.437     0.9396
A_1     C     0.6211     0.9234     0.956
A_0     C     0.114     0.0691     0.6827
A_3     C     0.7686     0.4056     0.7244
A_3     C     0.2916     0.6053     0.5916
A_2     C     0.3508     0.4347     0.041
A_0     C     0.1527     0.3101     0.918
A_3     C     0.3298     0.8226     0.8442
A_0     C     0.9051     0.4498     0.6851
A_0     C     0.3716     0.8532     0.5937
A_1     C     0.5791     0.5385     0.5264
A_3     C     0.3363     0.7256     0.1562
A_0     C     0.7477     0.7994     0.6224
A_0     C     0.9744     0.7707     0.1504
A_3     C     0.8129     0.9305     0.5142
A_3     C     0.6179     0.0702     0.6765
A_0     C     0.1051     0.1139     0.4606
A_2     C     0.129     0.1949     0.5565
A_2     C     0.2393     0.1066     0.713
A_3     C     0.4533     0.9237     0.7962
A_2     C     0.9895     0.1028     0.337
A_0     C     0.6248     0.2307     0.1928
A_3     C     0.7367     0.1632     0.3803
A_2     C     0.1909     0.6147     0.7468
A_0     C     0.8627     0.6801     0.1183
A_3     C     0.1838     0.1875     0.5874
A_0     C     0.1027     0.7042     0.6632
A_2     C     0.4316     0.5232     0.7942
A_0     C     0.5086     0.4584     0.6255
A_0     C     0.7242     0.3391     0.1561
A_1     C     0.8042     0.8103     0.6948
A_1     C     0.5643     0.7075     0.705
A_1     C     0.3963     0.1718     0.0706
A_0     C     0.344     0.7691     0.062
A_3     C     0.6158     0.767     0.2295
A_1     C     0.589     0.5445     0.8607
A_0     C     0.3147     0.6429     0.8731
A_1     C     0.9709     0.2731     0.4642
A_1     C     0.4023     0.914     0.3302
A_1     C     0.7833     0.7219     0.7558
A_3     C     0.6343     0.192     0.0871
A_1     C     0.0883     0.2031     0.4072
A_2     C     0.098     0.0795     0.3274
A_3     C     0.0075     0.9507     0.012
A_0     C     0.368     0.7971     0.2073
A_0     C     0.439     0.4004     0.5634
A_2     C     0.7671     0.9973     0.6185
A_1     C     0.8098     0.8719     0.6809
A_1     C     0.5356     0.3652     0.7122
A_3     C     0.308     0.4685     0.4646
A_3     C     0.3439     0.6913     0.1435
A_0     C     0.1069     0.5119     0.7255
A_2     C     0.5464     0.5509     0.9137
A_1     C     0.412     0.7939     0.014
A_2     C     0.5673     0.3174     0.2061
A_3     C     0.4265     0.8756     0.0695
A_3     C     0.8397     0.0059     0.162
A_3     C     0.52     0.1882     0.2267
A_0     C     0.4999     0.2617     0.543
A_0     C     0.3109     0.591     0.4717
A_2     C     0.4762     0.1645     0.7641
A_2     C     0.0785     0.6002     0.9472
A_2     C     0.9016     0.6701     0.8683
A_0     C     0.7596     0.6205     0.97
A_3     C     0.3685     0.8177     0.7684
A_0     C     0.4784     0.6823     0.8517
A_2     C     0.6819     0.3476     0.861
A_3     C     0.4492     0.3235     0.2909
A_0     C     0.0708     0.5593     0.8598
A_2     C     0.5399     0.8898     0.8026
A_0     C     0.7618     0.2727     0.3933
A_1     C     0.2218     0.7121     0.5824
A_1     C     0.2567     0.5231     0.5943
A_0     C     0.437     0.53     0.7897
A_0     C     0.6195     0.247     0.151
A_0     C     0.9517     0.0067     0.0934
A_0     C     0.3268     0.6232     0.5877
A_3     C     0.5109     0.7372     0.7552
A_0     C     0.496     0.8109     0.2564
A_2     C     0.0496     0.2244     0.1041
A_0     C     0.7585     0.3405     0.5059
A_3     C     0.2688     0.1814     0.7913
A_0     C     0.3585     0.94     0.5678
A_0     C     0.0613     0.1789     0.1744
A_0     C     0.5269     0.9791     0.9854
A_2     C     0.9786     0.5079     0.1937
A_0     C     0.4425     0.8936     0.4311
A_2     C     0.4568     0.506     0.2385
A_0     C     0.3865     0.2965     0.4097
A_3     C     0.298     0.8967     0.7111
A_0     C     0.4831     0.7281     0.5643
A_0     C     0.9512     0.3902     0.6142
A_2     C     0.1537     0.5677     0.6438
A_0     C     0.4889     0.1268     0.3107
A_3     C     0.8147     0.3665     0.7119
A_1     C     0.435     0.2226     0.3917
A_3     C     0.7188     0.3151     0.3436
A_0     C     0.864     0.21     0.1276
A_1     C     0.6789     0.6034     0.3558
A_1     C     0.2348     0.2917     0.5036
A_1     C     0.6613     0.9869     0.9037
A_1     C     0.759     0.4065     0.8056
A_1     C     0.027     0.3511     0.446
A_1     C     0.7134     0.4565     0.4912
A_1     C     0.9653     0.0266     0.7893
A_1     C     0.1858     0.4096     0.4907
A_1     C     0.5536     0.4435     0.8282
A_1     C     0.7347     0.5562     0.1137
A_1     C     0.4065     0.4886     0.313
A_1     C     0.471     0.4121     0.4274
A_1     C     0.5072     0.8333     0.3443
A_1     C     0.1101     0.1329     0.9802
A_1     C     0.2586     0.4735     0.5891
A_1     C     0.5553     0.092     0.6248
A_1     C     0.505     0.658     0.5029
A_1     C     0.9542     0.12     0.9406
A_1     C     0.8272     0.6931     0.1261
A_1     C     0.7842     0.5012     0.9239
A_1     C     0.0157     0.4373     0.4542
A_1     C     0.0101     0.5554     0.6459
A_1     C     0.4767     0.7567     0.4186
A_1     C     0.4928     0.1752     0.6069
A_1     C     0.6359     0.9484     0.2621
A_1     C     0.3561     0.0331     0.6681
A_1     C     0.4606     0.824     0.9876
A_1     C     0.5678     0.7069     0.4902
A_1     C     0.4795     0.5958     0.7178
A_1     C     0.4553     0.6548     0.2371
A_1     C     0.1441     0.3797     0.4836
A_1     C     0.0882     0.7128     0.3597
A_1     C     0.9451     0.1526     0.1596
A_1     C     0.6436     0.5371     0.7931
A_1     C     0.0154     0.255     0.1902
A_1     C     0.1492     0.3977     0.2434
A_1     C     0.3938     0.5515     0.4482
A_1     C     0.7863     0.9097     0.576
A_1     C     0.2036     0.7153     0.1612
A_1     C     0.196     0.7144     0.2533
A_1     C     0.2044     0.2097     0.3407
A_1     C     0.2634     0.5573     0.337
A_1     C     0.2292     0.0536     0.2559
A_1     C     0.5677     0.9003     0.7632
A_1     C     0.8096     0.8005     0.428
A_1     C     0.0232     0.4797     0.2839
A_1     C     0.5037     0.2751     0.1551
A_1     C     0.0128     0.4003     0.3967
A_1     C     0.0414     0.5968     0.748
A_1     C     0.1033     0.913     0.2876
A_1     C     0.4119     0.6435     0.8089
A_1     C     0.7992     0.0755     0.4316
A_1     C     0.8034     0.863     0.0845
A_1     C     0.2187     0.868     0.5764
A_1     C     0.1784     0.6191     0.7966
A_1     C     0.7066     0.5992     0.372
A_1     C     0.9624     0.4206     0.4256
A_1     C     0.349     0.5472     0.9518
A_1     C     0.84     0.2658     0.8785
A_1     C     0.6048     0.4074     0.1424
A_1     C     0.6869     0.5333     0.1531
A_1     C     0.3726     0.7627     0.2073
A_1     C     0.795     0.5284     0.5675
A_1     C     0.0844     0.7398     0.5022
A_1     C     0.9442     0.9113     0.8253
A_1     C     0.8854     0.2585     0.8645
A_1     C     0.4703     0.7543     0.1272
A_1     C     0.9461     0.6529     0.1694
A_1     C     0.8202     0.7174     0.5527
A_1     C     0.6494     0.5351     0.6467
A_1     C     0.3549     0.9831     0.8509
A_1     C     0.4559     0.2905     0.0263
A_1     C     0.136     0.6462     0.752
A_1     C     0.5732     0.1416     0.9426
A_1     C     0.7415     0.1229     0.4239
A_1     C     0.9449     0.9322     0.5517
A_1     C     0.6952     0.0098     0.2794
A_1     C     0.3382     0.0034     0.1074
A_1     C     0.1953     0.4588     0.0419
A_1     C     0.3326     0.5273     0.1676
A_1     C     0.3195     0.5925     0.9017
A_1     C     0.9547     0.6951     0.1044
A_1     C     0.964     0.9206     0.1969
A_1     C     0.5574     0.1025     0.9019
A_1     C     0.1732     0.7477     0.2835
A_1     C     0.6813     0.6407     0.4654
A_1     C     0.2365     0.593     0.9922
A_1     C     0.0607     0.3541     0.4405
A_1     C     0.4308     0.6468     0.9936
A_1     C     0.5505     0.3592     0.4548
A_1     C     0.8702     0.3561     0.5854
A_1     C     0.1977     0.1524     0.2381
A_1     C     0.1251     0.959     0.2974
A_1     C     0.7291     0.2913     0.0015
A_1     C     0.5456     0.0574     0.1522
A_1     C     0.5278     0.4219     0.946
A_1     C     0.3137     0.3289     0.0289
A_1     C     0.7753     0.6091     0.0643
A_1     C     0.4939     0.4089     0.3338
A_1     C     0.4352     0.4712     0.6929
A_1     C     0.0899     0.2909     0.5657
A_1     C     0.101     0.8809     0.0481
A_1     C     0.6286     0.4832     0.1305
A_1     C     0.3411     0.6167     0.5359
A_1     C     0.8442     0.1698     0.0301
A_1     C     0.7918     0.1209     0.0987
A_1     C     0.514     0.8535     0.3803
A_1     C     0.5763     0.6992     0.714
A_1     C     0.7283     0.8866     0.4022
A_1     C     0.8873     0.3959     0.4287
A_1     C     0.5116     0.3868     0.9982
A_1     C     0.0519     0.5744     0.9845
A_1     C     0.7008     0.6976     0.5799
A_1     C     0.7796     0.694     0.272
A_1     C     0.8218     0.2362     0.0211
A_1     C     0.0199     0.5232     0.6843
A_1     C     0.2109     0.8253     0.2435
A_1     C     0.9353     0.2367     0.135
A_1     C     0.5369     0.1108     0.6282
A_1     C     0.1545     0.1717     0.1805
A_1     C     0.388     0.5989     0.3999
A_1     C     0.3213     0.7814     0.7508
A_1     C     0.2997     0.5049     0.5526
A_1     C     0.2854     0.8043     0.823
A_1     C     0.3727     0.4562     0.5986
A_1     C     0.4271     0.8597     0.2915
A_1     C     0.4082     0.4006     0.8623
A_1     C     0.7348     0.3868     0.6646
A_1     C     0.8285     0.9196     0.5323
A_1     C     0.7431     0.6928     0.9928
A_1     C     0.8717     0.3868     0.3226
A_1     C     0.3535     0.6804     0.4366
A_1     C     0.4326     0.0534     0.7996
A_1     C     0.4984     0.218     0.1744
A_1     C     0.4164     0.7362     0.4717
A_1     C     0.4276     0.5084     0.4477
A_1     C     0.3173     0.6349     0.1966
A_1     C     0.6802     0.5909     0.7763
A_1     C     0.2862     0.2072     0.3882
A_1     C     0.9082     0.4503     0.3805
A_1     C     0.399     0.4883     0.7523
A_1     C     0.4554     0.7469     0.6822
A_1     C     0.6768     0.3495     0.5353
A_1     C     0.4578     0.6641     0.6456
A_1     C     0.19     0.515     0.0292
A_1     C     0.7524     0.5888     0.1183
A_1     C     0.732     0.1205     0.881
A_1     C     0.0754     0.6727     0.9202
A_1     C     0.9071     0.0528     0.2422
A_1     C     0.8635     0.7358     0.9609
A_1     C     0.3755     0.8707     0.7638
A_1     C     0.1729     0.4501     0.8665
A_1     C     0.8776     0.0226     0.6892
A_1     C     0.4774     0.0593     0.2174
A_1     C     0.8271     0.4625     0.4676
A_1     C     0.0942     0.7489     0.6876
A_1     C     0.1344     0.5635     0.4738
A_1     C     0.9842     0.8931     0.2336
A_1     C     0.8723     0.4793     0.9702
A_1     C     0.9231     0.3842     0.0769
A_1     C     0.3492     0.5191     0.2296
A_1     C     0.0821     0.7271     0.5688
A_1     C     0.6532     0.4945     0.6238
A_1     C     0.8162     0.065     0.2139
A_1     C     0.3061     0.23     0.6107
A_1     C     0.3217     0.0172     0.3721
A_1     C     0.0239     0.2817     0.3832
A_1     C     0.097     0.0735     0.7566
A_1     C     0.5704     0.8081     0.36
A_1     C     0.0684     0.1049     0.123
A_1     C     0.6923     0.801     0.2059
A_1     C     0.9606     0.202     0.5415
A_1     C     0.2632     0.6038     0.3027
A_1     C     0.8707     0.2     0.8634
A_1     C     0.7713     0.6305     0.2892
A_1     C     0.8479     0.5937     0.3862
A_1     C     0.1113     0.8263     0.4493
A_1     C     0.3634     0.9466     0.3138
A_1     C     0.8989     0.8529     0.8066
A_1     C     0.8934     0.4625     0.712
A_1     C     0.6477     0.2053     0.1374
A_1     C     0.7409     0.3145     0.2655
A_1     C     0.2638     0.4195     0.8963
A_1     C     0.5201     0.9038     0.9545
A_1     C     0.7357     0.1721     0.5491
A_1     C     0.3933     0.1166     0.2194
A_1     C     0.1874     0.5327     0.7926
A_1     C     0.6707     0.3338     0.7872
A_1     C     0.9169     0.2316     0.1225
A_1     C     0.0483     0.3751     0.5308
A_1     C     0.4383     0.0626     0.2806
A_1     C     0.8417     0.0353     0.6247
A_1     C     0.2101     0.2287     0.0211
A_1     C     0.6807     0.2138     0.8505
A_1     C     0.9269     0.8098     0.9859
A_1     C     0.8938     0.9752     0.5593
A_1     C     0.1689     0.7097     0.7974
A_1     C     0.2726     0.5535     0.0662
A_1     C     0.1114     0.1817     0.6488
A_1     C     0.2047     0.8307     0.256
A_1     C     0.1494     0.9382     0.3039
A_1     C     0.955     0.1274     0.6851
A_1     C     0.0649     0.897     0.4412
A_1     C     0.3309     0.3278     0.0189
A_1     C     0.118     0.8603     0.9701
A_1     C     0.9078     0.0833     0.5571
A_1     C     0.3351     0.9685     0.4616
A_1     C     0.3808     0.8105     0.4679
A_1     C     0.8277     0.0364     0.9728
A_1     C     0.5874     0.9504     0.2378
A_1     C     0.1121     0.7585     0.6944
A_1     C     0.4391     0.9881     0.7831
