MAT-90

loop_
_symmetry_equiv_pos_as_xyz
  x,y,z
_cell_length_a          38.2998
_cell_length_b          33.0857
_cell_length_c          49.1549
_cell_angle_alpha       90.0000
_cell_angle_beta        90.0000
_cell_angle_gamma       90.0000
loop_
_atom_site_label
_atom_site_type_symbol
_atom_site_fract_x
_atom_site_fract_y
_atom_site_fract_z
A_1     C     0.6676     0.906     0.271
A_0     C     0.8842     0.5189     0.4103
A_0     C     0.3254     0.9526     0.0892
A_2     C     0.7108     0.5755     0.2885
A_1     C     0.8536     0.2272     0.9237
A_1     C     0.9562     0.0301     0.2847
A_3     C     0.3522     0.3685     0.8131
A_3     C     0.9313     0.4679     0.3086
A_0     C     0.4729     0.8242     0.3491
A_3     C     0.6822     0.219     0.8185
A_1     C     0.3432     0.8919     0.7386
A_2     C     0.6432     0.8657     0.5384
A_1     C     0.6248     0.3367     0.1651
A_0     C     0.8679     0.0792     0.6183
A_3     C     0.3491     0.2018     0.9223
A_0     C     0.4197     0.8433     0.7954
A_2     C     0.416     0.1604     0.3364
A_1     C     0.8718     0.8438     0.9565
A_2     C     0.4998     0.3793     0.9221
A_0     C     0.949     0.4422     0.3245
A_3     C     0.1886     0.5141     0.3541
A_2     C     0.6748     0.4153     0.4773
A_2     C     0.1984     0.6865     0.6627
A_0     C     0.7133     0.2772     0.2896
A_3     C     0.45     0.6636     0.8217
A_0     C     0.4503     0.841     0.882
A_0     C     0.7404     0.2623     0.3598
A_2     C     0.5147     0.85     0.1959
A_0     C     0.9012     0.6266     0.6559
A_0     C     0.0131     0.0762     0.3488
A_0     C     0.9941     0.4661     0.9109
A_3     C     0.4213     0.4288     0.6962
A_2     C     0.6741     0.1544     0.0484
A_1     C     0.0253     0.3058     0.4701
A_0     C     0.3937     0.2079     0.6297
A_2     C     0.0979     0.5071     0.8807
A_0     C     0.9914     0.3607     0.0716
A_1     C     0.9961     0.4361     0.6556
A_1     C     0.0082     0.9349     0.1686
A_0     C     0.9168     0.1181     0.1086
A_1     C     0.5347     0.3084     0.9532
A_1     C     0.9491     0.1384     0.4841
A_2     C     0.387     0.1567     0.1878
A_3     C     0.7535     0.8704     0.9498
A_1     C     0.8687     0.3065     0.1794
A_1     C     0.3944     0.7972     0.2925
A_3     C     0.6921     0.9207     0.0188
A_2     C     0.8529     0.8151     0.1567
A_0     C     0.888     0.287     0.7063
A_2     C     0.9281     0.0752     0.5109
A_3     C     0.3209     0.3899     0.7507
A_0     C     0.8383     0.9891     0.0997
A_2     C     0.1558     0.0802     0.0797
A_1     C     0.3094     0.1013     0.8176
A_3     C     0.6008     0.9802     0.5322
A_0     C     0.251     0.1799     0.4889
A_3     C     0.8795     0.461     0.7852
A_1     C     0.3343     0.3198     0.8246
A_2     C     0.9905     0.2304     0.4703
A_2     C     0.0458     0.1385     0.0045
A_2     C     0.4907     0.8575     0.6962
A_1     C     0.2156     0.9512     0.0441
A_1     C     0.8381     0.942     0.3169
A_3     C     0.207     0.8033     0.7221
A_1     C     0.8489     0.0476     0.0215
A_1     C     0.5115     0.7035     0.9381
A_1     C     0.2747     0.2872     0.8412
A_1     C     0.6362     0.9308     0.9505
A_2     C     0.0968     0.1191     0.3763
A_0     C     0.8243     0.7324     0.0346
A_3     C     0.3962     0.1116     0.1631
A_0     C     0.0726     0.1808     0.5656
A_2     C     0.2961     0.5475     0.9312
A_3     C     0.9927     0.6947     0.6908
A_0     C     0.1692     0.0543     0.0262
A_1     C     0.4815     0.3186     0.6996
A_3     C     0.7293     0.6174     0.2661
A_0     C     0.6379     0.4551     0.4756
A_3     C     0.1251     0.3012     0.3141
A_0     C     0.5766     0.5037     0.7472
A_3     C     0.4286     0.5843     0.9719
A_3     C     0.8607     0.0256     0.0687
A_0     C     0.9657     0.131     0.2753
A_1     C     0.3942     0.9336     0.4037
A_2     C     0.1689     0.141     0.4045
A_2     C     0.3406     0.9331     0.8969
A_3     C     0.9828     0.6594     0.7375
A_3     C     0.7903     0.5402     0.4615
A_3     C     0.3956     0.966     0.3482
A_0     C     0.5135     0.464     0.615
A_3     C     0.685     0.8058     0.6414
A_0     C     0.3555     0.4369     0.4716
A_3     C     0.3246     0.7874     0.5498
A_2     C     0.5455     0.3449     0.136
A_0     C     0.8571     0.3278     0.637
A_1     C     0.8323     0.731     0.9795
A_2     C     0.1288     0.6783     0.6306
A_2     C     0.1811     0.4047     0.3183
A_2     C     0.7856     0.7369     0.9823
A_0     C     0.7022     0.8337     0.4912
A_2     C     0.2912     0.2224     0.0992
A_0     C     0.5691     0.8692     0.9063
A_3     C     0.0542     0.2757     0.0201
A_3     C     0.2777     0.5893     0.877
A_3     C     0.363     0.0994     0.4646
A_1     C     0.6874     0.2553     0.3857
A_3     C     0.8175     0.0662     0.4416
A_2     C     0.0696     0.6003     0.1387
A_3     C     0.1776     0.7694     0.416
A_3     C     0.8193     0.6641     0.789
A_2     C     0.4161     0.2585     0.4589
A_3     C     0.5315     0.1747     0.4428
A_1     C     0.789     0.2742     0.3583
A_3     C     0.3952     0.3355     0.874
A_2     C     0.9056     0.632     0.6757
A_1     C     0.0836     0.5704     0.3516
A_0     C     0.2763     0.7833     0.4867
A_1     C     0.1852     0.6018     0.9772
A_3     C     0.9602     0.5713     0.0633
A_3     C     0.4382     0.0337     0.2519
A_1     C     0.7007     0.6942     0.5394
A_1     C     0.3621     0.2465     0.9159
A_3     C     0.7749     0.0951     0.0942
A_2     C     0.8933     0.3603     0.6157
A_2     C     0.8521     0.5579     0.6004
A_2     C     0.4588     0.7066     0.4776
A_2     C     0.7878     0.8265     0.5873
A_0     C     0.0682     0.2947     0.7214
A_3     C     0.7368     0.8215     0.1188
A_2     C     0.5883     0.2978     0.1407
A_1     C     0.5343     0.9416     0.1827
A_1     C     0.731     0.7377     0.0346
A_0     C     0.9326     0.6897     0.6578
A_3     C     0.0112     0.1442     0.7234
A_3     C     0.3275     0.5517     0.6239
A_0     C     0.6834     0.9721     0.5996
A_1     C     0.9383     0.6022     0.9758
A_0     C     0.0145     0.4873     0.1097
A_1     C     0.2443     0.6265     0.4671
A_1     C     0.7705     0.808     0.5215
A_0     C     0.5057     0.081     0.162
A_2     C     0.3788     0.5612     0.6415
A_3     C     0.3841     0.0681     0.5225
A_0     C     0.9503     0.0277     0.2476
A_1     C     0.3559     0.3009     0.1297
A_1     C     0.4762     0.4995     0.5173
A_3     C     0.8405     0.3072     0.2071
A_2     C     0.2668     0.0174     0.6147
A_1     C     0.9229     0.4095     0.0009
A_1     C     0.6314     0.9046     0.5132
A_2     C     0.7534     0.4574     0.8996
A_0     C     0.6941     0.6941     0.4776
A_1     C     0.5607     0.0279     0.6564
A_3     C     0.7846     0.219     0.7907
A_2     C     0.681     0.7678     0.9209
A_1     C     0.4831     0.8826     0.9337
A_2     C     0.153     0.4082     0.1513
A_2     C     0.3588     0.3302     0.0137
A_2     C     0.282     0.8528     0.8125
A_0     C     0.3035     0.8412     0.5775
A_1     C     0.7109     0.7394     0.0703
A_1     C     0.0536     0.8495     0.3249
A_2     C     0.3638     0.6339     0.7304
A_3     C     0.0898     0.4454     0.439
A_3     C     0.4096     0.4425     0.6282
A_2     C     0.6098     0.0125     0.8131
A_3     C     0.7198     0.4622     0.1282
A_2     C     0.6916     0.7643     0.7876
A_2     C     0.7991     0.6074     0.2319
A_0     C     0.5262     0.4452     0.554
A_2     C     0.0162     0.2948     0.9673
A_0     C     0.2476     0.6323     0.9416
A_0     C     0.6914     0.5424     0.3169
A_1     C     0.9093     0.4987     0.8704
A_1     C     0.3888     0.1391     0.6905
A_0     C     0.7344     0.6342     0.6588
A_1     C     0.4054     0.0164     0.4165
A_2     C     0.8903     0.9848     0.0349
A_3     C     0.1947     0.3544     0.1258
A_2     C     0.2941     0.404     0.2813
A_2     C     0.0011     0.6684     0.0622
A_3     C     0.1382     0.3784     0.8545
A_2     C     0.3889     0.953     0.459
A_3     C     0.3686     0.489     0.3288
A_3     C     0.534     0.9395     0.3018
A_2     C     0.0141     0.6364     0.6205
A_3     C     0.0788     0.9317     0.84
A_2     C     0.962     0.529     0.108
A_0     C     0.3531     0.9296     0.9518
A_2     C     0.7196     0.8947     0.0582
A_2     C     0.5909     0.1132     0.9571
A_2     C     0.1527     0.0118     0.5272
A_1     C     0.2766     0.7478     0.0425
A_1     C     0.3058     0.6442     0.5595
A_2     C     0.7434     0.1618     0.5896
A_1     C     0.8392     0.056     0.2252
A_2     C     0.2089     0.7825     0.693
A_2     C     0.4742     0.3782     0.0598
A_3     C     0.166     0.0568     0.305
A_3     C     0.8064     0.8156     0.435
A_0     C     0.8791     0.1093     0.5969
A_2     C     0.9388     0.6673     0.3936
A_3     C     0.9856     0.9317     0.6502
A_1     C     0.3582     0.8017     0.6987
A_0     C     0.5893     0.6017     0.041
A_1     C     0.4965     0.1976     0.3853
A_3     C     0.8976     0.8257     0.4082
A_2     C     0.8737     0.5087     0.2361
A_3     C     0.8023     0.1831     0.9028
A_3     C     0.7109     0.8155     0.8308
A_2     C     0.2119     0.5968     0.8658
A_2     C     0.1617     0.8523     0.6075
A_0     C     0.9195     0.5037     0.5074
A_3     C     0.5014     0.2095     0.5315
A_0     C     0.7144     0.2863     0.8428
A_1     C     0.2891     0.274     0.5978
A_0     C     0.246     0.1525     0.1083
A_2     C     0.2659     0.9043     0.9121
A_3     C     0.3798     0.7354     0.6773
A_1     C     0.2744     0.9966     0.3944
A_1     C     0.6824     0.327     0.694
A_1     C     0.4629     0.6502     0.2962
A_1     C     0.6333     0.7295     0.725
A_0     C     0.7002     0.8741     0.511
A_2     C     0.6612     0.1658     0.3167
A_1     C     0.3137     0.4317     0.4909
A_0     C     0.9401     0.5811     0.5087
A_0     C     0.41     0.7611     0.1673
A_2     C     0.0406     0.2775     0.0613
A_2     C     0.1628     0.2176     0.4845
A_3     C     0.8224     0.9749     0.1575
A_3     C     0.3198     0.8685     0.9238
A_1     C     0.3321     0.4006     0.4371
A_0     C     0.5898     0.5053     0.5009
A_3     C     0.6082     0.5077     0.8279
A_2     C     0.9805     0.5023     0.2033
A_0     C     0.5043     0.5512     0.9769
A_3     C     0.2235     0.7651     0.0176
A_0     C     0.5625     0.5623     0.5802
A_2     C     0.503     0.0086     0.6353
A_2     C     0.6952     0.3983     0.4889
A_3     C     0.609     0.8929     0.5737
A_0     C     0.7777     0.5465     0.596
A_3     C     0.4625     0.0881     0.4299
A_0     C     0.0149     0.0797     0.2665
A_1     C     0.1434     0.2103     0.2957
A_3     C     0.6081     0.5036     0.9081
A_0     C     0.6641     0.2358     0.9784
A_0     C     0.5465     0.8169     0.5024
A_1     C     0.2068     0.6629     0.9283
A_0     C     0.6531     0.1638     0.1753
A_0     C     0.9643     0.6854     0.7273
A_1     C     0.4896     0.0091     0.9834
A_3     C     0.4184     0.6488     0.4202
A_3     C     0.7644     0.6503     0.8363
A_1     C     0.4224     0.1401     0.6009
A_2     C     0.8528     0.6334     0.3017
A_2     C     0.8442     0.7814     0.573
A_0     C     0.7401     0.457     0.0308
A_1     C     0.7768     0.3031     0.4817
A_2     C     0.6404     0.2575     0.1062
A_2     C     0.9386     0.7744     0.9502
A_2     C     0.3639     0.7577     0.2734
A_0     C     0.9896     0.5156     0.5035
A_2     C     0.8069     0.3493     0.4702
A_2     C     0.6712     0.4287     0.7767
A_2     C     0.9391     0.7918     0.6638
A_1     C     0.1318     0.1413     0.5435
A_1     C     0.2603     0.2491     0.3729
A_1     C     0.9828     0.1287     0.4495
A_3     C     0.2108     0.7953     0.4907
A_2     C     0.7215     0.3559     0.7871
A_1     C     0.6452     0.1105     0.6066
A_3     C     0.4556     0.8266     0.0256
A_2     C     0.9712     0.2466     0.6153
A_1     C     0.6898     0.1542     0.6233
A_3     C     0.2033     0.7603     0.2577
A_3     C     0.7439     0.0516     0.2609
A_0     C     0.0389     0.9729     0.4026
A_1     C     0.5616     0.0957     0.2141
A_0     C     0.0838     0.3448     0.9301
A_0     C     0.9988     0.9836     0.3623
A_3     C     0.8975     0.6453     0.5252
A_2     C     0.0247     0.8395     0.1447
A_1     C     0.6038     0.2805     0.4509
A_1     C     0.051     0.3094     0.3004
A_0     C     0.6697     0.8678     0.9789
A_2     C     0.4596     0.1639     0.0239
A_0     C     0.6043     0.4442     0.2775
A_1     C     0.3939     0.8203     0.7493
A_0     C     0.5623     0.7316     0.4195
A_2     C     0.7096     0.2162     0.4386
A_2     C     0.613     0.9532     0.0204
A_3     C     0.5908     0.8788     0.6182
A_1     C     0.3157     0.7023     0.6814
A_0     C     0.3618     0.4106     0.9128
A_1     C     0.8386     0.3529     0.9775
A_2     C     0.9199     0.6671     0.5558
A_2     C     0.7684     0.6566     0.6706
A_3     C     0.0948     0.2408     0.4003
A_1     C     0.1501     0.4634     0.5393
A_2     C     0.04     0.4746     0.5716
A_0     C     0.5991     0.8653     0.8634
A_0     C     0.1938     0.7044     0.2908
A_3     C     0.0034     0.3082     0.5431
A_1     C     0.5082     0.0395     0.4947
A_3     C     0.9344     0.4744     0.0076
A_0     C     0.8722     0.4856     0.5617
A_1     C     0.2208     0.3138     0.8613
A_1     C     0.3205     0.8335     0.204
A_0     C     0.7698     0.9082     0.4212
A_3     C     0.3353     0.4511     0.104
A_0     C     0.3206     0.0017     0.0578
A_0     C     0.4007     0.321     0.3227
A_3     C     0.5063     0.2151     0.8737
A_2     C     0.9108     0.1313     0.1498
A_0     C     0.2295     0.2813     0.5498
A_1     C     0.6745     0.605     0.6603
A_3     C     0.7607     0.9726     0.7246
A_2     C     0.7822     0.3091     0.6561
A_2     C     0.9931     0.5383     0.473
A_1     C     0.2691     0.0635     0.5541
A_0     C     0.5446     0.1873     0.3958
A_1     C     0.6475     0.2633     0.6735
A_1     C     0.7643     0.4995     0.4956
A_2     C     0.656     0.6834     0.1157
A_0     C     0.2086     0.1897     0.3405
A_3     C     0.2509     0.1513     0.7265
A_3     C     0.1097     0.7436     0.7243
A_2     C     0.3716     0.604     0.4265
A_1     C     0.5294     0.2264     0.8479
A_1     C     0.1754     0.9451     0.8867
A_0     C     0.5501     0.076     0.1039
A_0     C     0.2775     0.3758     0.4945
A_1     C     0.0041     0.3482     0.0162
A_1     C     0.6827     0.9259     0.8632
A_0     C     0.0097     0.0246     0.594
A_3     C     0.8579     0.4169     0.6513
A_3     C     0.2908     0.7301     0.5673
A_2     C     0.4172     0.4307     0.0455
A_0     C     0.1677     0.2557     0.9005
A_3     C     0.3469     0.9748     0.933
A_0     C     0.8718     0.4685     0.5693
A_0     C     0.3305     0.8724     0.6048
A_1     C     0.4843     0.5568     0.634
A_3     C     0.3602     0.6569     0.234
A_0     C     0.782     0.8057     0.6744
A_0     C     0.9081     0.7533     0.1083
A_3     C     0.7511     0.9472     0.5712
A_3     C     0.752     0.9645     0.5689
A_0     C     0.0853     0.198     0.4975
A_2     C     0.1979     0.1524     0.5559
A_2     C     0.1434     0.019     0.7405
A_3     C     0.4992     0.956     0.8417
A_2     C     0.0001     0.9542     0.2132
A_0     C     0.5166     0.2159     0.0784
A_3     C     0.7387     0.1669     0.3817
A_2     C     0.0353     0.5878     0.8262
A_0     C     0.862     0.6666     0.113
A_3     C     0.0648     0.1805     0.5623
A_0     C     0.106     0.6524     0.6784
A_2     C     0.2877     0.5122     0.8538
A_0     C     0.532     0.5609     0.6254
A_0     C     0.7655     0.2211     0.2518
A_1     C     0.749     0.9046     0.6768
A_1     C     0.6502     0.6802     0.6664
A_1     C     0.4436     0.1918     0.018
A_0     C     0.437     0.8009     0.9866
A_3     C     0.6063     0.7321     0.0855
A_1     C     0.5815     0.5216     0.9026
A_0     C     0.3187     0.5434     0.6805
A_1     C     0.8722     0.1797     0.4353
A_1     C     0.4759     0.0032     0.3674
A_1     C     0.8368     0.719     0.6972
A_3     C     0.7467     0.2202     0.0289
A_1     C     0.2401     0.2443     0.4494
A_2     C     0.079     0.1114     0.5109
A_3     C     0.961     0.9541     0.1049
A_0     C     0.3369     0.7392     0.2481
A_0     C     0.4366     0.3649     0.5843
A_2     C     0.7061     0.0596     0.4676
A_1     C     0.9024     0.8587     0.7073
A_1     C     0.5244     0.2717     0.6954
A_3     C     0.1602     0.5096     0.3444
A_3     C     0.2347     0.6759     0.2343
A_0     C     0.9968     0.607     0.74
A_2     C     0.5755     0.5855     0.8028
A_1     C     0.4353     0.7357     0.9284
A_2     C     0.568     0.2653     0.348
A_3     C     0.4518     0.8628     0.0416
A_3     C     0.8423     0.0785     0.2096
A_3     C     0.7017     0.1895     0.1964
A_0     C     0.4952     0.2568     0.4069
A_0     C     0.2587     0.6835     0.4297
A_2     C     0.4397     0.2142     0.7148
A_2     C     0.1111     0.5676     0.8622
A_2     C     0.9022     0.6748     0.9441
A_0     C     0.7957     0.5022     0.9015
A_3     C     0.4099     0.7149     0.8354
A_0     C     0.494     0.7302     0.9506
A_2     C     0.6679     0.3268     0.8031
A_3     C     0.37     0.2558     0.1695
A_0     C     0.2218     0.4941     0.8568
A_2     C     0.5631     0.0132     0.6641
A_0     C     0.6155     0.356     0.4348
A_1     C     0.2462     0.8182     0.4974
A_1     C     0.2521     0.4709     0.5318
A_0     C     0.5354     0.589     0.7417
A_0     C     0.6472     0.2835     0.2208
A_0     C     0.879     0.053     0.1446
A_0     C     0.3936     0.6239     0.4979
A_3     C     0.5384     0.7823     0.6069
A_0     C     0.3831     0.7668     0.344
A_2     C     0.0359     0.2057     0.1
A_0     C     0.721     0.1992     0.3831
A_3     C     0.3562     0.3444     0.7741
A_0     C     0.4432     0.948     0.6834
A_0     C     0.0693     0.185     0.0653
A_0     C     0.4419     0.8291     0.0207
A_2     C     0.9161     0.4561     0.2067
A_0     C     0.4426     0.8387     0.3416
A_2     C     0.3852     0.6038     0.2441
A_0     C     0.4406     0.3595     0.3484
A_3     C     0.293     0.0032     0.6551
A_0     C     0.597     0.7683     0.6194
A_0     C     0.0003     0.384     0.5291
A_2     C     0.2543     0.7562     0.5404
A_0     C     0.5099     0.0777     0.4511
A_3     C     0.6652     0.392     0.7081
A_1     C     0.4503     0.1368     0.372
A_3     C     0.7319     0.158     0.3391
A_0     C     0.9271     0.0743     0.2181
A_1     C     0.6214     0.4655     0.2846
A_1     C     0.484     0.1784     0.806
A_1     C     0.0938     0.587     0.537
A_1     C     0.5945     0.7144     0.5135
A_1     C     0.606     0.4598     0.9036
A_1     C     0.2187     0.546     0.0954
A_1     C     0.8085     0.5589     0.7461
A_1     C     0.1073     0.1874     0.2473
A_1     C     0.9915     0.7481     0.1058
A_1     C     0.3466     0.5755     0.008
A_1     C     0.45     0.1494     0.2566
A_1     C     0.7973     0.3561     0.7411
A_1     C     0.1412     0.4908     0.745
A_1     C     0.3235     0.9425     0.7629
A_1     C     0.9792     0.1156     0.1147
A_1     C     0.8826     0.9807     0.027
A_1     C     0.0112     0.1901     0.9895
A_1     C     0.6415     0.3903     0.2326
A_1     C     0.6697     0.511     0.595
A_1     C     0.2089     0.8903     0.0312
A_1     C     0.4563     0.0047     0.6608
A_1     C     0.4405     0.3323     0.3404
A_1     C     0.0632     0.1734     0.4288
A_1     C     0.9363     0.0234     0.8676
A_1     C     0.1839     0.3096     0.7518
A_1     C     0.4024     0.6683     0.0923
A_1     C     0.9062     0.2611     0.2872
A_1     C     0.9211     0.8903     0.1546
A_1     C     0.1215     0.1019     0.9371
A_1     C     0.2671     0.1402     0.0695
A_1     C     0.6771     0.8959     0.3699
A_1     C     0.6427     0.6155     0.2593
A_1     C     0.8775     0.7214     0.9422
A_1     C     0.8038     0.1546     0.1611
A_1     C     0.0744     0.6672     0.0284
A_1     C     0.3232     0.8229     0.0917
A_1     C     0.6843     0.772     0.369
A_1     C     0.106     0.8282     0.886
A_1     C     0.3748     0.9912     0.5773
A_1     C     0.3792     0.2976     0.5173
A_1     C     0.5461     0.0321     0.4298
A_1     C     0.6802     0.1173     0.4187
A_1     C     0.9902     0.8195     0.7465
A_1     C     0.6328     0.0052     0.096
A_1     C     0.5088     0.5586     0.8188
A_1     C     0.0015     0.1236     0.0142
A_1     C     0.7134     0.7421     0.5487
A_1     C     0.0738     0.282     0.2951
A_1     C     0.0508     0.6217     0.0845
A_1     C     0.9787     0.8127     0.4228
A_1     C     0.4122     0.3441     0.8054
A_1     C     0.277     0.3963     0.6723
A_1     C     0.6799     0.4547     0.0926
A_1     C     0.6737     0.9601     0.7002
A_1     C     0.548     0.5497     0.4875
A_1     C     0.5331     0.4697     0.3092
A_1     C     0.4936     0.2303     0.0613
A_1     C     0.4902     0.9309     0.3542
A_1     C     0.7087     0.8883     0.3348
A_1     C     0.8656     0.0356     0.6892
A_1     C     0.4317     0.6045     0.1077
A_1     C     0.2996     0.2274     0.8914
A_1     C     0.428     0.7563     0.482
A_1     C     0.0389     0.4997     0.5528
A_1     C     0.8842     0.624     0.156
A_1     C     0.5332     0.3588     0.0799
A_1     C     0.2847     0.4155     0.8798
A_1     C     0.149     0.2281     0.1211
A_1     C     0.5843     0.4167     0.8291
A_1     C     0.2232     0.1084     0.1623
A_1     C     0.6098     0.6151     0.7043
A_1     C     0.7781     0.6605     0.2997
A_1     C     0.554     0.6507     0.9783
A_1     C     0.4775     0.2131     0.4959
A_1     C     0.6703     0.6152     0.2578
A_1     C     0.481     0.1879     0.5012
A_1     C     0.9429     0.5598     0.1634
A_1     C     0.1249     0.373     0.3437
A_1     C     0.8846     0.5536     0.3986
A_1     C     0.7198     0.0385     0.3822
A_1     C     0.4049     0.7067     0.8697
A_1     C     0.5339     0.3316     0.4569
A_1     C     0.5466     0.2533     0.9335
A_1     C     0.575     0.8286     0.3577
A_1     C     0.9918     0.8726     0.9229
A_1     C     0.6813     0.896     0.0596
A_1     C     0.2732     0.78     0.1859
A_1     C     0.3974     0.0686     0.6326
A_1     C     0.37     0.3431     0.7932
A_1     C     0.6067     0.4533     0.2001
A_1     C     0.0741     0.4402     0.7256
A_1     C     0.9647     0.2964     0.2165
A_1     C     0.1368     0.4037     0.1862
A_1     C     0.5756     0.1787     0.2739
A_1     C     0.9889     0.4384     0.733
A_1     C     0.8387     0.7431     0.3836
A_1     C     0.7515     0.9351     0.0148
A_1     C     0.7724     0.9897     0.5042
A_1     C     0.7493     0.6168     0.4413
A_1     C     0.2211     0.216     0.6944
A_1     C     0.2781     0.7119     0.5492
A_1     C     0.0513     0.3121     0.1051
A_1     C     0.0764     0.0732     0.8588
A_1     C     0.9736     0.2699     0.1446
A_1     C     0.7035     0.0156     0.626
A_1     C     0.3554     0.4055     0.416
A_1     C     0.0007     0.1228     0.6689
A_1     C     0.207     0.8672     0.0012
A_1     C     0.865     0.4518     0.9546
A_1     C     0.5023     0.3353     0.3655
A_1     C     0.0409     0.8327     0.2541
A_1     C     0.011     0.3746     0.5617
A_1     C     0.0939     0.3462     0.7277
A_1     C     0.0551     0.824     0.3209
A_1     C     0.8589     0.8545     0.2891
A_1     C     0.5683     0.8614     0.0732
A_1     C     0.3358     0.4669     0.8237
A_1     C     0.9865     0.6352     0.4065
A_1     C     0.6611     0.5369     0.2333
A_1     C     0.9261     0.2215     0.2701
A_1     C     0.4894     0.7523     0.3666
A_1     C     0.3573     0.7384     0.6404
A_1     C     0.3802     0.1518     0.5604
A_1     C     0.3554     0.9386     0.3212
A_1     C     0.4656     0.5234     0.66
A_1     C     0.5499     0.2285     0.1694
A_1     C     0.7958     0.216     0.4485
A_1     C     0.8126     0.2934     0.1206
A_1     C     0.2437     0.5695     0.2243
A_1     C     0.292     0.8526     0.3087
A_1     C     0.3481     0.3837     0.0201
A_1     C     0.5013     0.5418     0.6684
A_1     C     0.9387     0.4021     0.7053
A_1     C     0.0863     0.884     0.2562
A_1     C     0.071     0.4375     0.0086
A_1     C     0.6108     0.8033     0.7684
A_1     C     0.5657     0.1783     0.6512
A_1     C     0.8888     0.4825     0.0489
A_1     C     0.4516     0.4261     0.067
A_1     C     0.4496     0.2726     0.7748
A_1     C     0.1279     0.7437     0.2575
A_1     C     0.1413     0.7037     0.0878
A_1     C     0.3685     0.3913     0.5784
A_1     C     0.0981     0.6885     0.0574
A_1     C     0.0181     0.7096     0.0177
A_1     C     0.9913     0.561     0.6641
A_1     C     0.9706     0.4267     0.355
A_1     C     0.3315     0.397     0.8917
A_1     C     0.4313     0.5204     0.2897
A_1     C     0.6327     0.0198     0.174
A_1     C     0.7785     0.3671     0.6934
A_1     C     0.3279     0.2539     0.3633
A_1     C     0.4778     0.8872     0.9834
A_1     C     0.6282     0.8038     0.9546
A_1     C     0.6672     0.3352     0.3561
A_1     C     0.4093     0.8869     0.0642
A_1     C     0.9325     0.86     0.4359
A_1     C     0.6824     0.4788     0.9676
A_1     C     0.9515     0.3326     0.3174
A_1     C     0.2487     0.4566     0.8038
A_1     C     0.0871     0.519     0.0954
A_1     C     0.6255     0.8487     0.2033
A_1     C     0.5169     0.44     0.3483
A_1     C     0.9265     0.1692     0.1955
A_1     C     0.7191     0.9576     0.4954
A_1     C     0.4193     0.2233     0.4489
A_1     C     0.5661     0.6086     0.2828
A_1     C     0.7422     0.6783     0.9536
A_1     C     0.1741     0.4427     0.8119
A_1     C     0.7612     0.4957     0.6429
A_1     C     0.7972     0.6394     0.1787
A_1     C     0.9987     0.0029     0.7042
A_1     C     0.0018     0.419     0.6617
A_1     C     0.3004     0.0119     0.7834
A_1     C     0.1934     0.5987     0.127
A_1     C     0.2013     0.6531     0.0497
A_1     C     0.1741     0.138     0.3178
A_1     C     0.6466     0.8999     0.7079
A_1     C     0.3675     0.1582     0.6641
A_1     C     0.3015     0.4796     0.9329
A_1     C     0.8638     0.2477     0.7013
A_1     C     0.5319     0.2752     0.1956
A_1     C     0.3846     0.8606     0.2543
A_1     C     0.899     0.3707     0.934
A_1     C     0.3539     0.5411     0.3091
A_1     C     0.3495     0.5149     0.2533
A_1     C     0.3922     0.9125     0.3556
A_1     C     0.0562     0.2831     0.9073
A_1     C     0.6015     0.3477     0.2371
A_1     C     0.7229     0.3781     0.2208
A_1     C     0.8625     0.7339     0.7071
A_1     C     0.4606     0.5661     0.1775
A_1     C     0.8534     0.3224     0.2142
A_1     C     0.896     0.5647     0.2236
A_1     C     0.9403     0.4951     0.2544
A_1     C     0.9056     0.4108     0.0132
A_1     C     0.9238     0.0645     0.1723
A_1     C     0.5014     0.2275     0.0367
A_1     C     0.6036     0.4532     0.9018
A_1     C     0.173     0.5588     0.7783
A_1     C     0.3921     0.2248     0.7116
A_1     C     0.0225     0.7355     0.5641
A_1     C     0.2832     0.6805     0.8751
A_1     C     0.1232     0.9344     0.8049
A_1     C     0.5705     0.5431     0.0365
A_1     C     0.2203     0.8682     0.1977
A_1     C     0.481     0.9315     0.1734
A_1     C     0.6462     0.2809     0.7268
A_1     C     0.3005     0.4945     0.5841
A_1     C     0.9463     0.9779     0.734
A_1     C     0.8378     0.9946     0.0006
A_1     C     0.7472     0.7508     0.2858
A_1     C     0.6614     0.9129     0.4535
A_1     C     0.2595     0.8012     0.968
A_1     C     0.47     0.3852     0.2413
A_1     C     0.2644     0.9397     0.0149
A_1     C     0.8619     0.2903     0.8391
A_1     C     0.4228     0.6726     0.8251
A_1     C     0.2346     0.4852     0.8375
A_1     C     0.2923     0.1998     0.8473
A_1     C     0.8472     0.0165     0.9796
A_1     C     0.4991     0.0761     0.2981
A_1     C     0.4965     0.3113     0.1234
A_1     C     0.4719     0.0564     0.2586
A_1     C     0.1872     0.2039     0.465
A_1     C     0.5543     0.9811     0.9382
A_1     C     0.7026     0.6658     0.6887
A_1     C     0.9319     0.136     0.7904
A_1     C     0.093     0.0402     0.7567
A_1     C     0.2349     0.0289     0.7976
A_1     C     0.5914     0.7154     0.9012
A_1     C     0.3608     0.1165     0.7893
A_1     C     0.2767     0.3655     0.425
A_1     C     0.9592     0.7381     0.789
A_1     C     0.2645     0.7522     0.6541
A_1     C     0.7966     0.2837     0.8052
A_1     C     0.5315     0.8864     0.0636
A_1     C     0.3575     0.8727     0.416
A_1     C     0.5036     0.7087     0.0458
A_1     C     0.2922     0.5836     0.7943
A_1     C     0.5021     0.9462     0.0504
A_1     C     0.9815     0.4553     0.7156
A_1     C     0.2359     0.7881     0.9061
A_1     C     0.1202     0.7551     0.6473
A_1     C     0.7106     0.5709     0.3464
A_1     C     0.0382     0.8628     0.0968
A_1     C     0.9517     0.1867     0.7727
A_1     C     0.1594     0.5853     0.8889
A_1     C     0.7866     0.2906     0.1005
A_1     C     0.2659     0.3298     0.0909
A_1     C     0.4936     0.1242     0.6574
A_1     C     0.1598     0.9551     0.9736
A_1     C     0.7317     0.0493     0.8954
A_1     C     0.8091     0.1606     0.9469
A_1     C     0.2025     0.0395     0.8829
A_1     C     0.1969     0.1608     0.3428
A_1     C     0.5271     0.7083     0.4302
A_1     C     0.8872     0.7144     0.8024
A_1     C     0.6808     0.5511     0.7047
A_1     C     0.1783     0.771     0.438
A_1     C     0.0361     0.9962     0.0708
A_1     C     0.8767     0.1716     0.1885
A_1     C     0.563     0.4397     0.1997
A_1     C     0.1194     0.4855     0.8588
A_1     C     0.7957     0.9461     0.9515
A_1     C     0.0323     0.7596     0.1983
A_1     C     0.4475     0.2959     0.3876
A_1     C     0.0058     0.9392     0.8659
A_1     C     0.8875     0.3538     0.6956
A_1     C     0.2597     0.3626     0.1064
A_1     C     0.8781     0.4857     0.021
A_1     C     0.1158     0.2481     0.2037
A_1     C     0.088     0.7484     0.6363
A_1     C     0.2589     0.6108     0.5834
A_1     C     0.727     0.5768     0.4633
A_1     C     0.8352     0.1697     0.9926
A_1     C     0.9816     0.0927     0.83
A_1     C     0.8529     0.5093     0.8592
A_1     C     0.4784     0.9981     0.6535
A_1     C     0.3451     0.9573     0.7384
A_1     C     0.3487     0.9061     0.6579
A_1     C     0.5956     0.0026     0.5684
A_1     C     0.3448     0.2978     0.4232
A_1     C     0.0591     0.3205     0.3503
A_1     C     0.7888     0.9293     0.9561
A_1     C     0.574     0.2004     0.8643
A_1     C     0.5393     0.4439     0.4509
A_1     C     0.9889     0.1592     0.5653
A_1     C     0.5358     0.5892     0.7179
A_1     C     0.859     0.7549     0.6359
A_1     C     0.8281     0.9365     0.742
A_1     C     0.891     0.2321     0.7741
A_1     C     0.8634     0.5479     0.5844
A_1     C     0.066     0.4745     0.7405
A_1     C     0.6333     0.0714     0.4385
A_1     C     0.8115     0.4782     0.814
A_1     C     0.6046     0.3604     0.0692
A_1     C     0.7577     0.7323     0.2476
A_1     C     0.8883     0.5071     0.2658
A_1     C     0.371     0.4253     0.8522
