MAT-51

loop_
_symmetry_equiv_pos_as_xyz
  x,y,z
_cell_length_a          46.6785
_cell_length_b          24.6458
_cell_length_c          24.4285
_cell_angle_alpha       90.0000
_cell_angle_beta        90.0000
_cell_angle_gamma       90.0000
loop_
_atom_site_label
_atom_site_type_symbol
_atom_site_fract_x
_atom_site_fract_y
_atom_site_fract_z
A_3     C     0.8692     0.1413     0.522
A_0     C     0.1161     0.6986     0.7705
A_1     C     0.6445     0.2127     0.1858
A_2     C     0.3353     0.3032     0.9133
A_1     C     0.3328     0.9462     0.4593
A_1     C     0.6318     0.8611     0.3261
A_0     C     0.2784     0.7819     0.6481
A_1     C     0.7835     0.6701     0.6379
A_2     C     0.8385     0.3643     0.6939
A_3     C     0.8457     0.2293     0.8196
A_2     C     0.9923     0.4133     0.8699
A_0     C     0.5456     0.486     0.6776
A_2     C     0.4003     0.392     0.5669
A_0     C     0.4498     0.6027     0.938
A_2     C     0.9033     0.6847     0.4332
A_1     C     0.3329     0.5761     0.3402
A_0     C     0.9257     0.3674     0.0834
A_3     C     0.4727     0.8301     0.1927
A_3     C     0.4875     0.3329     0.4131
A_1     C     0.3131     0.8148     0.2914
A_3     C     0.5351     0.5676     0.6895
A_3     C     0.1219     0.9622     0.5137
A_2     C     0.9098     0.5876     0.9506
A_2     C     0.6882     0.409     0.3425
A_3     C     0.4892     0.6025     0.4277
A_3     C     0.7368     0.6006     0.0346
A_2     C     0.729     0.0034     0.3905
A_1     C     0.9228     0.2359     0.1493
A_3     C     0.4455     0.975     0.7311
A_3     C     0.2095     0.3716     0.3971
A_0     C     0.6941     0.1515     0.2036
A_1     C     0.2779     0.9543     0.9849
A_2     C     0.503     0.6181     0.9477
A_0     C     0.4682     0.1984     0.9126
A_2     C     0.8599     0.6633     0.247
A_2     C     0.8926     0.0594     0.8104
A_0     C     0.7734     0.5139     0.1364
A_2     C     0.0898     0.3782     0.566
A_1     C     0.6007     0.2881     0.4678
A_0     C     0.8894     0.8603     0.58
A_0     C     0.0657     0.2244     0.78
A_2     C     0.01     0.8718     0.5036
A_3     C     0.7336     0.1627     0.3221
A_2     C     0.8011     0.6747     0.0548
A_0     C     0.5265     0.3379     0.8035
A_1     C     0.994     0.2681     0.5418
A_0     C     0.382     0.8906     0.555
A_3     C     0.8835     0.4811     0.231
A_3     C     0.1731     0.0271     0.277
A_1     C     0.529     0.9048     0.5219
A_2     C     0.7393     0.1239     0.1038
A_3     C     0.2988     0.4732     0.0506
A_1     C     0.0305     0.8145     0.0158
A_2     C     0.1061     0.9661     0.5676
A_1     C     0.1588     0.3237     0.5495
A_0     C     0.1691     0.0126     0.1471
A_0     C     0.4398     0.6309     0.4504
A_3     C     0.2303     0.2246     0.6962
A_2     C     0.0588     0.9567     0.6476
A_2     C     0.8973     0.9011     0.5146
A_0     C     0.5742     0.0567     0.4163
A_0     C     0.7968     0.4065     0.7364
A_2     C     0.5398     0.4939     0.431
A_2     C     0.3361     0.3264     0.5346
A_2     C     0.1445     0.7088     0.4339
A_2     C     0.5418     0.8317     0.0587
A_1     C     0.2941     0.8784     0.1853
A_2     C     0.4314     0.0195     0.6727
A_2     C     0.8572     0.2938     0.0446
A_1     C     0.0115     0.7858     0.8438
A_1     C     0.9812     0.6075     0.4495
A_2     C     0.7116     0.8645     0.6072
A_3     C     0.8411     0.1817     0.5032
A_2     C     0.3272     0.9753     0.7837
A_0     C     0.6116     0.8923     0.289
A_2     C     0.5793     0.5204     0.5622
A_1     C     0.5718     0.6625     0.2817
A_1     C     0.3075     0.3898     0.2088
A_3     C     0.9452     0.2774     0.7784
A_2     C     0.7909     0.3904     0.2848
A_1     C     0.8888     0.9179     0.5434
A_2     C     0.542     0.693     0.6397
A_2     C     0.9828     0.3279     0.4845
A_2     C     0.1215     0.2191     0.1703
A_0     C     0.988     0.3136     0.2306
A_2     C     0.9272     0.897     0.8402
A_3     C     0.9335     0.1201     0.8702
A_0     C     0.7643     0.9404     0.4607
A_1     C     0.9254     0.6663     0.8722
A_2     C     0.6453     0.4126     0.9979
A_0     C     0.0917     0.6527     0.8154
A_0     C     0.6528     0.9889     0.0297
A_2     C     0.8152     0.6497     0.3612
A_0     C     0.5797     0.6016     0.1835
A_1     C     0.735     0.4305     0.045
A_2     C     0.7488     0.2499     0.7877
A_0     C     0.6527     0.9202     0.8149
A_3     C     0.3742     0.2257     0.1312
A_3     C     0.7976     0.4131     0.7195
A_2     C     0.5785     0.3247     0.2342
A_0     C     0.944     0.9349     0.2002
A_1     C     0.3123     0.8647     0.305
A_2     C     0.4498     0.8096     0.2827
A_2     C     0.9582     0.7128     0.8263
A_1     C     0.8255     0.3233     0.7252
A_1     C     0.0045     0.0296     0.1775
A_1     C     0.2888     0.4933     0.1296
A_2     C     0.6659     0.0777     0.141
A_2     C     0.2253     0.6198     0.3427
A_2     C     0.5567     0.8632     0.0653
A_3     C     0.721     0.9487     0.6633
A_3     C     0.9921     0.3272     0.4452
A_0     C     0.4407     0.7665     0.5699
A_0     C     0.0495     0.5584     0.899
A_2     C     0.3705     0.409     0.0306
A_2     C     0.9278     0.4859     0.2009
A_2     C     0.1783     0.8119     0.7258
A_1     C     0.7663     0.3314     0.4892
A_2     C     0.7955     0.3509     0.5022
A_1     C     0.729     0.5295     0.9571
A_1     C     0.6188     0.4436     0.5149
A_0     C     0.0443     0.5802     0.3781
A_3     C     0.8974     0.9262     0.7494
A_2     C     0.9106     0.8419     0.9101
A_3     C     0.5476     0.1078     0.0505
A_3     C     0.7777     0.5115     0.5299
A_1     C     0.4353     0.7497     0.893
A_3     C     0.5476     0.7452     0.212
A_0     C     0.8966     0.042     0.1504
A_2     C     0.3317     0.6209     0.6323
A_1     C     0.8835     0.1317     0.9273
A_1     C     0.2145     0.149     0.1829
A_0     C     0.1596     0.1927     0.6405
A_0     C     0.0743     0.3844     0.8609
A_0     C     0.8333     0.3857     0.1472
A_0     C     0.2451     0.997     0.6238
A_2     C     0.0109     0.114     0.8023
A_3     C     0.7417     0.5413     0.9246
A_0     C     0.829     0.0141     0.5947
A_3     C     0.5983     0.8761     0.5053
A_0     C     0.9034     0.0601     0.575
A_3     C     0.8241     0.258     0.2886
A_2     C     0.666     0.9003     0.5603
A_1     C     0.5202     0.1505     0.8763
A_2     C     0.8904     0.0931     0.5473
A_0     C     0.0361     0.6144     0.8001
A_1     C     0.1092     0.2205     0.8096
A_3     C     0.0111     0.1999     0.0177
A_0     C     0.1127     0.43     0.6241
A_1     C     0.4463     0.5784     0.4457
A_3     C     0.966     0.9764     0.7388
A_0     C     0.6085     0.1232     0.7444
A_2     C     0.9534     0.9666     0.3542
A_3     C     0.1277     0.0967     0.6108
A_3     C     0.5348     0.1365     0.5312
A_2     C     0.2635     0.6344     0.8017
A_1     C     0.7949     0.2865     0.1936
A_1     C     0.588     0.9968     0.3763
A_2     C     0.2025     0.4068     0.3645
A_2     C     0.7998     0.7055     0.2648
A_3     C     0.537     0.2573     0.9079
A_3     C     0.7316     0.9171     0.5983
A_2     C     0.1679     0.6981     0.7643
A_3     C     0.8914     0.8031     0.6776
A_1     C     0.8376     0.9199     0.3258
A_0     C     0.6155     0.3252     0.7486
A_0     C     0.8748     0.1732     0.2466
A_0     C     0.8874     0.0033     0.0923
A_3     C     0.496     0.1278     0.3486
A_3     C     0.0189     0.6189     0.8133
A_3     C     0.7795     0.1512     0.5867
A_3     C     0.3036     0.4541     0.2831
A_3     C     0.8378     0.0806     0.0354
A_3     C     0.4256     0.616     0.3743
A_3     C     0.0686     0.0844     0.2455
A_3     C     0.9312     0.4849     0.5287
A_3     C     0.6217     0.4109     0.1439
A_3     C     0.3185     0.4651     0.8546
A_3     C     0.7407     0.2024     0.8386
A_3     C     0.6739     0.6977     0.0789
A_3     C     0.3681     0.6088     0.9732
A_3     C     0.6111     0.7142     0.906
A_3     C     0.2903     0.5595     0.8103
A_3     C     0.7634     0.9995     0.6191
A_3     C     0.1654     0.4367     0.3905
A_3     C     0.9498     0.3286     0.9565
A_3     C     0.2528     0.1113     0.1463
A_3     C     0.1776     0.2388     0.1857
A_3     C     0.2819     0.4329     0.546
A_3     C     0.9845     0.5653     0.4358
A_3     C     0.4061     0.3681     0.7387
A_3     C     0.7933     0.5278     0.4873
A_3     C     0.8493     0.4942     0.7919
A_3     C     0.6922     0.7876     0.3632
A_3     C     0.6689     0.725     0.6819
A_3     C     0.8097     0.3711     0.699
A_3     C     0.2967     0.9456     0.508
A_3     C     0.2385     0.9721     0.045
A_3     C     0.8754     0.3725     0.8562
A_3     C     0.6037     0.3782     0.9792
A_3     C     0.2298     0.2699     0.2265
A_3     C     0.8043     0.5445     0.1453
A_3     C     0.967     0.3858     0.8635
A_3     C     0.481     0.0118     0.4585
A_3     C     0.5764     0.2353     0.8812
A_3     C     0.5213     0.1256     0.6595
A_3     C     0.4318     0.457     0.0263
A_3     C     0.3628     0.7038     0.9396
A_3     C     0.5472     0.8491     0.927
A_3     C     0.7933     0.095     0.0087
A_3     C     0.8358     0.0185     0.0623
A_3     C     0.9947     0.4537     0.1095
A_3     C     0.1346     0.5533     0.7112
A_3     C     0.3842     0.103     0.263
A_3     C     0.7384     0.6775     0.726
A_3     C     0.2768     0.0692     0.2929
A_3     C     0.574     0.1486     0.2031
A_3     C     0.9533     0.1606     0.9749
A_3     C     0.1377     0.7984     0.4803
A_3     C     0.0795     0.7782     0.1074
A_3     C     0.5388     0.4272     0.8902
A_3     C     0.018     0.197     0.1138
A_3     C     0.4685     0.3587     0.4194
A_3     C     0.123     0.1292     0.5507
A_3     C     0.5396     0.7145     0.8531
A_3     C     0.6384     0.403     0.3825
A_3     C     0.0924     0.0823     0.3595
A_3     C     0.9915     0.6     0.5233
A_3     C     0.7567     0.6241     0.0443
A_3     C     0.8713     0.1755     0.0437
A_3     C     0.4629     0.5274     0.9483
A_3     C     0.6175     0.9166     0.6951
A_3     C     0.9712     0.7407     0.9007
A_3     C     0.8085     0.3699     0.655
A_3     C     0.5254     0.4642     0.1366
A_3     C     0.741     0.331     0.8916
A_3     C     0.6193     0.5713     0.836
A_3     C     0.7235     0.1542     0.4038
A_3     C     0.6148     0.5077     0.9534
A_3     C     0.5503     0.4407     0.8442
A_3     C     0.7318     0.5123     0.9511
A_3     C     0.1724     0.1685     0.8129
A_3     C     0.4612     0.4353     0.9549
A_3     C     0.7102     0.8953     0.5532
A_3     C     0.901     0.1144     0.2663
A_3     C     0.1922     0.1036     0.5842
A_3     C     0.8901     0.1652     0.0461
A_3     C     0.8515     0.4445     0.5086
A_3     C     0.644     0.1035     0.3727
A_3     C     0.1082     0.5515     0.6312
A_3     C     0.019     0.1178     0.3354
A_3     C     0.3203     0.778     0.2098
A_3     C     0.6547     0.4983     0.9887
A_3     C     0.2058     0.4344     0.3692
A_3     C     0.163     0.932     0.0669
A_3     C     0.5394     0.3378     0.5866
A_3     C     0.0024     0.444     0.0922
A_3     C     0.6687     0.3205     0.7015
A_3     C     0.8364     0.8726     0.6894
A_3     C     0.1351     0.0822     0.7355
A_3     C     0.9795     0.9168     0.6117
A_3     C     0.9351     0.2748     0.9535
A_3     C     0.1431     0.1163     0.177
A_3     C     0.631     0.6012     0.7995
A_3     C     0.559     0.8527     0.3375
A_3     C     0.4556     0.0792     0.0547
A_3     C     0.1526     0.8518     0.6038
A_3     C     0.2413     0.1971     0.3618
A_3     C     0.1593     0.2751     0.4889
A_3     C     0.819     0.6573     0.4353
A_3     C     0.2704     0.3711     0.2548
A_3     C     0.0154     0.8717     0.8023
A_3     C     0.5787     0.6605     0.5936
A_3     C     0.8784     0.8419     0.3973
A_3     C     0.8084     0.9966     0.0886
A_3     C     0.9234     0.0812     0.5494
A_3     C     0.6988     0.435     0.737
A_3     C     0.2276     0.7252     0.2822
