MAT-97

loop_
_symmetry_equiv_pos_as_xyz
  x,y,z
_cell_length_a          37.6058
_cell_length_b          47.0722
_cell_length_c          33.2478
_cell_angle_alpha       90.0000
_cell_angle_beta        90.0000
_cell_angle_gamma       90.0000
loop_
_atom_site_label
_atom_site_type_symbol
_atom_site_fract_x
_atom_site_fract_y
_atom_site_fract_z
A_1     C     0.7859     0.2481     0.8697
A_3     C     0.7652     0.4101     0.6706
A_0     C     0.9717     0.9824     0.8414
A_2     C     0.1678     0.3542     0.6262
A_0     C     0.3537     0.3135     0.0575
A_3     C     0.1     0.961     0.5822
A_2     C     0.4884     0.413     0.117
A_3     C     0.5665     0.9289     0.7793
A_3     C     0.9566     0.9531     0.4711
A_2     C     0.8994     0.6201     0.634
A_3     C     0.8303     0.645     0.8829
A_2     C     0.7298     0.8928     0.7518
A_3     C     0.7646     0.51     0.9257
A_2     C     0.6186     0.7683     0.709
A_3     C     0.485     0.7488     0.0125
A_0     C     0.8074     0.1212     0.012
A_3     C     0.038     0.4362     0.633
A_3     C     0.6788     0.1177     0.1148
A_3     C     0.4194     0.1377     0.8913
A_1     C     0.6911     0.5968     0.5793
A_1     C     0.9692     0.3173     0.4203
A_1     C     0.8709     0.7218     0.2807
A_2     C     0.6154     0.821     0.1046
A_2     C     0.6279     0.7657     0.6038
A_1     C     0.6719     0.5189     0.3128
A_3     C     0.3335     0.3766     0.702
A_3     C     0.3439     0.5908     0.7868
A_2     C     0.4023     0.1951     0.5259
A_1     C     0.1615     0.1884     0.1248
A_3     C     0.22     0.9649     0.4204
A_1     C     0.3455     0.5044     0.8044
A_0     C     0.565     0.6241     0.1047
A_2     C     0.6548     0.6638     0.4416
A_3     C     0.1476     0.3949     0.0767
A_3     C     0.6445     0.5754     0.8314
A_3     C     0.5328     0.5935     0.2579
A_3     C     0.2458     0.728     0.9092
A_2     C     0.5895     0.8148     0.6873
A_3     C     0.9666     0.8274     0.0518
A_3     C     0.0457     0.8925     0.6924
A_1     C     0.6257     0.1002     0.4947
A_2     C     0.5999     0.0506     0.2985
A_2     C     0.2488     0.957     0.8908
A_0     C     0.8665     0.1552     0.3126
A_3     C     0.7109     0.5793     0.4423
A_2     C     0.1582     0.1308     0.8937
A_0     C     0.684     0.334     0.635
A_2     C     0.4392     0.4176     0.0059
A_3     C     0.4171     0.6222     0.3467
A_3     C     0.6794     0.3068     0.2791
A_2     C     0.9578     0.323     0.2085
A_2     C     0.3137     0.0602     0.3411
A_2     C     0.9887     0.6408     0.9794
A_3     C     0.4439     0.9603     0.8692
A_0     C     0.3041     0.9922     0.6004
A_1     C     0.3501     0.1158     0.3144
A_1     C     0.8242     0.9913     0.5715
A_1     C     0.6381     0.5504     0.1278
A_3     C     0.0107     0.8725     0.2516
A_2     C     0.3612     0.4606     0.3138
A_1     C     0.7491     0.3948     0.731
A_3     C     0.1305     0.4451     0.7144
A_2     C     0.4784     0.9751     0.823
A_0     C     0.2382     0.0091     0.6521
A_0     C     0.1272     0.1616     0.2788
A_3     C     0.6726     0.0132     0.9662
A_0     C     0.2833     0.5074     0.2086
A_0     C     0.8328     0.0886     0.0861
A_0     C     0.6372     0.6269     0.6375
A_0     C     0.2959     0.3418     0.8203
A_3     C     0.6211     0.0244     0.7781
A_2     C     0.361     0.424     0.7679
A_1     C     0.0119     0.9871     0.5179
A_3     C     0.3842     0.3453     0.5101
A_3     C     0.2967     0.4032     0.0119
A_1     C     0.3135     0.7734     0.7759
A_3     C     0.6697     0.1273     0.1203
A_0     C     0.9457     0.4539     0.2002
A_1     C     0.1686     0.8798     0.4167
A_1     C     0.7963     0.7523     0.9426
A_2     C     0.6872     0.8278     0.6326
A_1     C     0.0303     0.9846     0.8994
A_2     C     0.4561     0.2425     0.2465
A_2     C     0.5807     0.587     0.8813
A_0     C     0.2751     0.7162     0.9866
A_1     C     0.5066     0.9912     0.7825
A_2     C     0.3872     0.6628     0.493
A_3     C     0.1053     0.2198     0.3279
A_3     C     0.4659     0.522     0.2077
A_1     C     0.0128     0.8915     0.9374
A_2     C     0.8698     0.8022     0.3876
A_1     C     0.1804     0.9939     0.6371
A_2     C     0.6073     0.7453     0.7711
A_2     C     0.0806     0.8821     0.5631
A_2     C     0.6648     0.9405     0.2567
A_3     C     0.3748     0.6248     0.0454
A_2     C     0.3015     0.0331     0.0761
A_1     C     0.7223     0.2508     0.0315
A_1     C     0.9988     0.7784     0.6029
A_1     C     0.7393     0.0642     0.3353
A_1     C     0.399     0.7954     0.8285
A_3     C     0.8418     0.9384     0.1064
A_3     C     0.8005     0.5113     0.5182
A_3     C     0.1194     0.049     0.8229
A_0     C     0.081     0.5148     0.9889
A_1     C     0.0216     0.9891     0.4077
A_3     C     0.5369     0.2891     0.8884
A_3     C     0.8134     0.8672     0.8657
A_0     C     0.7049     0.3458     0.489
A_0     C     0.2362     0.8227     0.5527
A_1     C     0.9087     0.2144     0.8862
A_2     C     0.3264     0.3314     0.3071
A_0     C     0.2778     0.3171     0.3977
A_1     C     0.0841     0.8224     0.6969
A_1     C     0.338     0.2622     0.3604
A_1     C     0.7467     0.4781     0.4802
A_1     C     0.1703     0.8802     0.9937
A_2     C     0.5465     0.0236     0.891
A_3     C     0.0262     0.8861     0.4273
A_3     C     0.0386     0.782     0.7337
A_3     C     0.4792     0.5419     0.6367
A_2     C     0.2098     0.3667     0.0733
A_0     C     0.1806     0.9786     0.192
A_3     C     0.4666     0.8886     0.1199
A_2     C     0.0475     0.5146     0.5998
A_0     C     0.3915     0.761     0.5998
A_1     C     0.1563     0.037     0.2588
A_2     C     0.8813     0.51     0.8153
A_1     C     0.5998     0.1913     0.2765
A_1     C     0.1719     0.6757     0.5947
A_3     C     0.2338     0.3409     0.3016
A_0     C     0.0425     0.7607     0.3969
A_3     C     0.5827     0.819     0.9527
A_0     C     0.0214     0.8423     0.0343
A_2     C     0.5777     0.5889     0.24
A_1     C     0.0459     0.9314     0.5228
A_1     C     0.4469     0.1971     0.9092
A_0     C     0.9375     0.5682     0.2982
A_2     C     0.073     0.9989     0.8013
A_2     C     0.2559     0.108     0.1184
A_0     C     0.1549     0.4381     0.626
A_0     C     0.5723     0.3508     0.8086
A_0     C     0.7346     0.1914     0.9909
A_2     C     0.7797     0.9429     0.576
A_2     C     0.5468     0.167     0.6532
A_2     C     0.8088     0.366     0.9247
A_2     C     0.1187     0.9359     0.8418
A_1     C     0.1019     0.0729     0.687
A_3     C     0.0146     0.4262     0.7473
A_2     C     0.5299     0.2056     0.5733
A_0     C     0.2916     0.8916     0.5096
A_3     C     0.8473     0.3597     0.9609
A_1     C     0.6198     0.8919     0.6906
A_0     C     0.7764     0.223     0.8739
A_3     C     0.9229     0.766     0.6258
A_2     C     0.9005     0.7552     0.074
A_3     C     0.5491     0.6086     0.49
A_2     C     0.8335     0.3495     0.5183
A_0     C     0.0055     0.6992     0.7881
A_1     C     0.559     0.7347     0.3022
A_0     C     0.5629     0.5642     0.0258
A_2     C     0.9806     0.5232     0.1309
A_3     C     0.1306     0.4884     0.3375
A_3     C     0.9839     0.6982     0.716
A_0     C     0.8031     0.1525     0.6421
A_0     C     0.6799     0.2157     0.9631
A_3     C     0.6238     0.1519     0.5451
A_0     C     0.4845     0.4755     0.5032
A_2     C     0.7361     0.6489     0.3754
A_0     C     0.301     0.8505     0.9955
A_2     C     0.9617     0.683     0.7587
A_2     C     0.0694     0.706     0.0587
A_0     C     0.3717     0.8917     0.2855
A_1     C     0.6128     0.0597     0.17
A_0     C     0.7323     0.6385     0.2921
A_0     C     0.3494     0.3956     0.0638
A_1     C     0.2303     0.729     0.5317
A_3     C     0.5977     0.6414     0.5427
A_0     C     0.4194     0.6124     0.6751
A_1     C     0.6652     0.8014     0.7647
A_0     C     0.4951     0.9491     0.8125
A_0     C     0.168     0.1172     0.2366
A_2     C     0.7036     0.4075     0.2898
A_1     C     0.7177     0.8985     0.8348
A_1     C     0.3233     0.0757     0.0822
A_1     C     0.2521     0.1111     0.0546
A_3     C     0.9939     0.6738     0.6718
A_0     C     0.9783     0.3283     0.8752
A_2     C     0.2363     0.3697     0.6425
A_1     C     0.9991     0.8792     0.38
A_0     C     0.7326     0.2901     0.7404
A_2     C     0.7014     0.5839     0.8111
A_3     C     0.9754     0.4359     0.5383
A_3     C     0.4868     0.1757     0.9917
A_0     C     0.7234     0.0827     0.2309
A_0     C     0.1553     0.3884     0.6264
A_2     C     0.7183     0.2882     0.5557
A_1     C     0.1356     0.5377     0.7356
A_0     C     0.1597     0.752     0.7847
A_1     C     0.1402     0.5662     0.056
A_3     C     0.5962     0.5735     0.3201
A_0     C     0.2541     0.8138     0.9318
A_0     C     0.9108     0.5335     0.6511
A_2     C     0.4569     0.8665     0.6391
A_1     C     0.7882     0.6372     0.9381
A_3     C     0.3773     0.2088     0.1996
A_2     C     0.341     0.8631     0.4085
A_1     C     0.1589     0.9981     0.3726
A_3     C     0.2566     0.3768     0.7382
A_0     C     0.1855     0.6811     0.4185
A_3     C     0.6396     0.8874     0.6965
A_2     C     0.4725     0.852     0.9955
A_2     C     0.8945     0.0359     0.436
A_2     C     0.376     0.8404     0.1559
A_1     C     0.2394     0.6083     0.9394
A_3     C     0.711     0.6033     0.4022
A_1     C     0.1912     0.3149     0.8805
A_2     C     0.3793     0.9445     0.7755
A_3     C     0.4065     0.3839     0.0488
A_3     C     0.2308     0.3863     0.0515
A_1     C     0.4148     0.5038     0.0994
A_2     C     0.0578     0.0434     0.2097
A_1     C     0.0239     0.4161     0.8298
A_0     C     0.5749     0.2303     0.0297
A_2     C     0.3148     0.4818     0.4091
A_1     C     0.5699     0.5042     0.0243
A_1     C     0.1881     0.1167     0.0504
A_3     C     0.3743     0.9614     0.4361
A_0     C     0.9555     0.4203     0.8815
A_3     C     0.3563     0.7328     0.9964
A_2     C     0.0905     0.1264     0.9943
A_0     C     0.0389     0.3284     0.3869
A_3     C     0.6704     0.2258     0.4139
A_0     C     0.7911     0.4862     0.5135
A_2     C     0.164     0.5281     0.5222
A_3     C     0.4976     0.8574     0.2923
A_0     C     0.0505     0.8689     0.9088
A_1     C     0.6409     0.9805     0.0612
A_2     C     0.5179     0.9717     0.4036
A_1     C     0.2774     0.0243     0.9924
A_2     C     0.989     0.6799     0.7646
A_1     C     0.3435     0.5173     0.8328
A_2     C     0.3833     0.709     0.4745
A_0     C     0.1159     0.737     0.7933
A_2     C     0.0042     0.0462     0.4659
A_0     C     0.9749     0.7341     0.7517
A_3     C     0.9307     0.6664     0.5715
A_0     C     0.8878     0.5483     0.8373
A_1     C     0.1693     0.284     0.4739
A_0     C     0.0842     0.3052     0.1392
A_1     C     0.0276     0.8084     0.5694
A_1     C     0.1521     0.5909     0.6106
A_3     C     0.6694     0.9545     0.7062
A_0     C     0.064     0.1457     0.279
A_1     C     0.8953     0.7459     0.3158
A_3     C     0.5164     0.0264     0.2737
A_2     C     0.9468     0.1492     0.8787
A_2     C     0.3881     0.288     0.5693
A_1     C     0.9201     0.7535     0.4929
A_2     C     0.2904     0.4184     0.0004
A_3     C     0.5148     0.2654     0.5925
A_0     C     0.7537     0.5362     0.3752
A_2     C     0.3349     0.6432     0.868
A_2     C     0.6391     0.8544     0.0529
A_1     C     0.1443     0.8114     0.4593
A_3     C     0.9972     0.3415     0.2895
A_2     C     0.4926     0.012     0.1446
A_3     C     0.6164     0.5098     0.8491
A_0     C     0.8179     0.5796     0.3314
A_3     C     0.7815     0.6125     0.503
A_3     C     0.4254     0.3933     0.9428
A_0     C     0.6869     0.4249     0.4442
A_0     C     0.7379     0.2966     0.4885
A_2     C     0.1225     0.84     0.8254
A_3     C     0.1353     0.1028     0.2029
A_3     C     0.0307     0.7276     0.4072
A_2     C     0.6821     0.914     0.9672
A_2     C     0.0539     0.8634     0.7164
A_0     C     0.9306     0.5527     0.3396
A_2     C     0.1069     0.615     0.1275
A_2     C     0.4508     0.6884     0.5266
A_1     C     0.3386     0.3631     0.8801
A_1     C     0.9961     0.4823     0.6106
A_3     C     0.648     0.7459     0.9501
A_0     C     0.3151     0.4929     0.7517
A_0     C     0.5309     0.8177     0.8048
A_3     C     0.0892     0.2615     0.946
A_1     C     0.4061     0.9097     0.8523
A_3     C     0.2751     0.5264     0.9732
A_2     C     0.1273     0.9829     0.4937
A_2     C     0.834     0.842     0.3156
A_3     C     0.8826     0.0564     0.2309
A_0     C     0.836     0.6817     0.6215
A_3     C     0.9618     0.5863     0.7621
A_3     C     0.5658     0.4631     0.5229
A_0     C     0.9915     0.5139     0.0558
A_0     C     0.2765     0.0783     0.9298
A_3     C     0.4318     0.3566     0.0626
A_0     C     0.8114     0.0127     0.3413
A_2     C     0.9033     0.6849     0.464
A_3     C     0.1747     0.2037     0.7964
A_2     C     0.4916     0.241     0.3669
A_2     C     0.3488     0.7544     0.0094
A_1     C     0.5763     0.0318     0.3588
A_3     C     0.0081     0.8566     0.3522
A_2     C     0.2803     0.3556     0.9599
A_2     C     0.3207     0.3969     0.989
A_2     C     0.1808     0.3975     0.3252
A_2     C     0.5343     0.9126     0.3585
A_2     C     0.6679     0.6489     0.3312
A_2     C     0.1996     0.1147     0.6902
A_2     C     0.0203     0.1108     0.6165
A_2     C     0.6029     0.5351     0.118
A_2     C     0.4764     0.8299     0.3273
A_2     C     0.8742     0.6271     0.1293
A_2     C     0.9191     0.8657     0.7738
A_2     C     0.0654     0.1612     0.8546
A_2     C     0.5772     0.7592     0.604
A_2     C     0.9114     0.9322     0.0407
A_2     C     0.3747     0.7124     0.598
A_2     C     0.0461     0.6888     0.0559
A_2     C     0.5132     0.0019     0.1096
A_2     C     0.875     0.9956     0.0032
A_2     C     0.6425     0.1028     0.8156
A_2     C     0.5033     0.137     0.9758
A_2     C     0.9547     0.5916     0.9416
A_2     C     0.523     0.3331     0.7976
A_2     C     0.9879     0.6945     0.9463
A_2     C     0.1197     0.8314     0.2869
A_2     C     0.3005     0.295     0.8686
A_2     C     0.3583     0.7885     0.3625
A_2     C     0.3196     0.7704     0.0597
A_2     C     0.4752     0.8594     0.9589
A_2     C     0.6121     0.3957     0.9607
A_2     C     0.4717     0.5505     0.6527
A_2     C     0.4347     0.7936     0.8719
A_2     C     0.9033     0.2096     0.0699
A_2     C     0.0527     0.5588     0.9656
A_2     C     0.9613     0.9829     0.5608
A_2     C     0.3302     0.7057     0.0127
A_2     C     0.4268     0.7304     0.7637
A_2     C     0.6026     0.5081     0.7776
A_2     C     0.1292     0.3907     0.8051
A_2     C     0.2792     0.4891     0.8945
A_2     C     0.4616     0.5094     0.507
A_2     C     0.9011     0.0705     0.6746
A_2     C     0.5572     0.2609     0.6962
A_2     C     0.2976     0.8984     0.0794
A_2     C     0.4734     0.1641     0.0294
A_2     C     0.109     0.6909     0.143
A_2     C     0.1552     0.9129     0.0538
A_2     C     0.6845     0.8049     0.2824
A_2     C     0.9774     0.2865     0.6922
A_2     C     0.6327     0.1486     0.0948
A_2     C     0.4598     0.4117     0.022
A_2     C     0.7018     0.4891     0.1319
A_2     C     0.9756     0.8653     0.0532
A_2     C     0.9127     0.4131     0.8138
A_2     C     0.3763     0.4203     0.8247
A_2     C     0.1345     0.6774     0.9392
A_2     C     0.9403     0.8717     0.1139
A_2     C     0.1111     0.8691     0.3031
A_2     C     0.3388     0.4175     0.7836
A_2     C     0.9221     0.25     0.4668
A_2     C     0.387     0.1573     0.1037
A_2     C     0.4208     0.6383     0.6609
A_2     C     0.6439     0.9484     0.2554
A_2     C     0.8612     0.1539     0.9206
A_2     C     0.7583     0.2179     0.1366
A_2     C     0.2742     0.6911     0.4107
A_2     C     0.7042     0.3447     0.8174
A_2     C     0.103     0.932     0.7263
A_2     C     0.9635     0.2559     0.1615
A_2     C     0.4034     0.0132     0.1934
A_2     C     0.2198     0.8104     0.0059
A_2     C     0.7637     0.7054     0.2897
A_2     C     0.2036     0.9659     0.1903
A_2     C     0.6618     0.6741     0.4466
A_2     C     0.043     0.4795     0.3898
A_2     C     0.7964     0.3089     0.0469
A_2     C     0.5001     0.3156     0.0977
A_2     C     0.756     0.6993     0.0874
A_2     C     0.1075     0.8653     0.596
A_2     C     0.7117     0.229     0.9164
A_2     C     0.4728     0.0894     0.5257
A_2     C     0.4945     0.4159     0.0722
A_2     C     0.1445     0.1206     0.6505
A_2     C     0.8976     0.7252     0.5139
A_2     C     0.3136     0.9966     0.4365
A_2     C     0.0014     0.9297     0.1129
A_2     C     0.8272     0.3643     0.2943
A_2     C     0.6509     0.7589     0.4439
A_2     C     0.8046     0.2139     0.9754
A_2     C     0.5686     0.6884     0.277
A_2     C     0.591     0.17     0.3867
A_2     C     0.3585     0.6793     0.0486
A_2     C     0.9296     0.0093     0.8127
A_2     C     0.9727     0.0964     0.4059
A_2     C     0.3539     0.8711     0.9848
A_2     C     0.6702     0.3784     0.6497
A_2     C     0.4396     0.2158     0.239
A_2     C     0.0803     0.5591     0.8929
A_2     C     0.2346     0.5665     0.4965
A_2     C     0.7624     0.3011     0.804
A_2     C     0.0823     0.6909     0.0517
A_2     C     0.1283     0.3566     0.6824
A_2     C     0.7901     0.5485     0.8581
A_2     C     0.8838     0.2402     0.9482
A_2     C     0.2591     0.6912     0.8899
A_2     C     0.7678     0.0735     0.963
A_2     C     0.6813     0.5606     0.0506
A_2     C     0.7833     0.3329     0.6796
A_2     C     0.679     0.0658     0.2327
A_2     C     0.204     0.6576     0.5288
A_2     C     0.7033     0.1652     0.4642
A_2     C     0.6266     0.7985     0.5839
A_2     C     0.0411     0.7588     0.5933
A_2     C     0.0164     0.917     0.1649
A_2     C     0.3569     0.7645     0.2145
A_2     C     0.2072     0.2844     0.8878
A_2     C     0.4879     0.4519     0.6823
A_2     C     0.9448     0.2101     0.4507
A_2     C     0.1093     0.1477     0.2895
A_2     C     0.7995     0.1321     0.5726
A_2     C     0.9783     0.7921     0.1985
A_2     C     0.0283     0.5278     0.2689
A_2     C     0.8495     0.9484     0.5762
A_2     C     0.3484     0.802     0.9306
A_2     C     0.4033     0.7773     0.9207
A_2     C     0.1433     0.3023     0.2032
A_2     C     0.6111     0.7167     0.2831
A_2     C     0.7306     0.049     0.5475
A_2     C     0.5177     0.1717     0.4394
A_2     C     0.2872     0.5168     0.5269
A_2     C     0.3042     0.7647     0.7848
A_2     C     0.3382     0.5271     0.1994
A_2     C     0.809     0.4342     0.9946
A_2     C     0.4599     0.8668     0.0058
A_2     C     0.5889     0.7514     0.884
A_2     C     0.3383     0.5372     0.1135
A_2     C     0.1045     0.7467     0.7048
A_2     C     0.6894     0.2377     0.7907
A_2     C     0.0291     0.6839     0.2978
A_2     C     0.7783     0.0648     0.2434
A_2     C     0.7089     0.5911     0.1331
A_2     C     0.2959     0.2375     0.3329
A_2     C     0.5996     0.8705     0.0489
A_2     C     0.0514     0.8978     0.7895
A_2     C     0.1492     0.4656     0.8297
A_2     C     0.7187     0.4976     0.7766
A_2     C     0.3284     0.7231     0.7927
A_2     C     0.3385     0.9868     0.3858
A_2     C     0.9276     0.5848     0.4527
A_2     C     0.8105     0.3111     0.6287
A_2     C     0.2512     0.3039     0.4187
A_2     C     0.6711     0.5194     0.7906
A_2     C     0.3312     0.0884     0.0947
A_2     C     0.6532     0.9971     0.5365
A_2     C     0.789     0.5501     0.568
A_2     C     0.5046     0.0353     0.8842
A_2     C     0.5721     0.7686     0.1618
A_2     C     0.7318     0.1696     0.9573
A_2     C     0.5899     0.5594     0.2868
A_2     C     0.6336     0.0075     0.8218
A_2     C     0.7467     0.4973     0.6287
A_2     C     0.5301     0.1756     0.8468
A_2     C     0.0303     0.5263     0.0383
A_2     C     0.1036     0.0542     0.1745
A_2     C     0.1204     0.8858     0.2814
A_2     C     0.3155     0.6933     0.8998
A_2     C     0.4898     0.5471     0.4125
A_2     C     0.824     0.5004     0.345
A_2     C     0.8696     0.3828     0.0572
A_2     C     0.0826     0.3884     0.5627
A_2     C     0.5503     0.9897     0.1122
A_2     C     0.3676     0.3155     0.851
A_2     C     0.7962     0.2208     0.8285
A_2     C     0.0315     0.1649     0.9225
A_2     C     0.117     0.9886     0.4976
A_2     C     0.9231     0.5442     0.1354
A_2     C     0.2595     0.9033     0.5038
A_2     C     0.7798     0.0913     0.5547
A_2     C     0.7195     0.9925     0.7836
A_2     C     0.2523     0.4795     0.609
A_2     C     0.3461     0.3523     0.0084
A_2     C     0.8597     0.5769     0.1793
A_2     C     0.4056     0.7234     0.5746
A_2     C     0.7968     0.8074     0.3811
A_2     C     0.9278     0.3652     0.6
A_2     C     0.0998     0.7247     0.2487
A_2     C     0.8985     0.4081     0.6847
A_2     C     0.9002     0.728     0.4883
A_2     C     0.9146     0.7793     0.8259
A_2     C     0.7918     0.911     0.5502
A_2     C     0.8768     0.2291     0.7186
A_2     C     0.6971     0.5613     0.6349
A_2     C     0.072     0.8928     0.5106
A_2     C     0.7825     0.5189     0.0169
A_2     C     0.5417     0.0355     0.848
A_2     C     0.3516     0.6615     0.2644
A_2     C     0.8944     0.0826     0.4682
A_2     C     0.9657     0.907     0.2163
A_2     C     0.5995     0.7343     0.0945
A_2     C     0.0143     0.3827     0.8558
A_2     C     0.7522     0.0602     0.2686
A_2     C     0.5419     0.1563     0.6074
A_2     C     0.3847     0.9492     0.6918
A_2     C     0.1375     0.7715     0.1563
A_2     C     0.1467     0.2136     0.1763
A_2     C     0.6894     0.5905     0.7053
A_2     C     0.7641     0.1783     0.5132
A_2     C     0.1864     0.3515     0.8551
A_2     C     0.0406     0.5365     0.1702
A_2     C     0.0634     0.5982     0.4269
A_2     C     0.3418     0.4752     0.9351
A_2     C     0.8458     0.6664     0.9434
A_2     C     0.8792     0.1856     0.1742
A_2     C     0.3758     0.9604     0.9058
A_2     C     0.4953     0.2158     0.1369
A_2     C     0.9278     0.71     0.5075
A_2     C     0.5957     0.9408     0.1106
A_2     C     0.135     0.6477     0.9822
A_2     C     0.8275     0.1323     0.3023
A_2     C     0.8976     0.5562     0.2132
A_2     C     0.4575     0.3232     0.4819
A_2     C     0.7269     0.5607     0.9635
A_2     C     0.7375     0.1289     0.229
A_2     C     0.4571     0.7527     0.7446
A_2     C     0.2017     0.8279     0.5488
A_2     C     0.9286     0.12     0.5249
A_2     C     0.0822     0.7733     0.2033
A_2     C     0.0507     0.1293     0.0744
A_2     C     0.0911     0.3354     0.5161
A_2     C     0.246     0.9918     0.4857
A_2     C     0.8813     0.2246     0.4174
A_2     C     0.6624     0.8285     0.6354
A_2     C     0.3127     0.1578     0.3819
A_2     C     0.4904     0.7618     0.6508
A_2     C     0.8725     0.2453     0.4655
A_2     C     0.5508     0.8549     0.8706
A_2     C     0.3792     0.6079     0.1542
A_2     C     0.9228     0.7515     0.7827
A_2     C     0.5001     0.0787     0.9765
A_2     C     0.8322     0.081     0.5943
A_2     C     0.2911     0.2546     0.9743
A_2     C     0.2669     0.7258     0.5955
A_2     C     0.6964     0.8574     0.9709
A_2     C     0.6313     0.4968     0.9356
A_2     C     0.0665     0.1187     0.8177
A_2     C     0.3638     0.6921     0.852
A_2     C     0.4418     0.2954     0.6297
A_2     C     0.0672     0.5858     0.1657
A_2     C     0.1932     0.1432     0.0905
A_2     C     0.6667     0.2722     0.9719
A_2     C     0.4362     0.1653     0.4879
A_2     C     0.9239     0.2609     0.5391
A_2     C     0.5132     0.9115     0.5913
A_2     C     0.8673     0.5744     0.2538
A_2     C     0.9986     0.7602     0.7671
A_2     C     0.8137     0.8882     0.2453
A_2     C     0.0546     0.2861     0.6485
A_2     C     0.5325     0.8626     0.249
A_2     C     0.8183     0.8965     0.2902
A_2     C     0.5214     0.6115     0.3776
A_2     C     0.7293     0.1956     0.2194
A_2     C     0.7095     0.075     0.9224
A_2     C     0.1392     0.913     0.4753
A_2     C     0.3769     0.8321     0.4374
A_2     C     0.0546     0.0535     0.4501
A_2     C     0.7719     0.1671     0.0994
A_2     C     0.2703     0.6892     0.7926
A_2     C     0.3469     0.8429     0.4385
A_2     C     0.7539     0.7725     0.0942
A_2     C     0.3277     0.0162     0.0133
A_2     C     0.8585     0.6318     0.1907
A_2     C     0.9969     0.1661     0.521
A_2     C     0.031     0.1611     0.3947
A_2     C     0.6671     0.3952     0.0549
A_2     C     0.3645     0.7304     0.3174
A_2     C     0.9855     0.6598     0.4064
A_2     C     0.0771     0.004     0.487
A_2     C     0.576     0.233     0.4215
A_2     C     0.1424     0.6708     0.2896
A_2     C     0.9654     0.3496     0.6833
A_2     C     0.5588     0.6578     0.4987
A_2     C     0.8123     0.4327     0.2842
A_2     C     0.912     0.0271     0.7732
A_2     C     0.142     0.6254     0.7674
A_2     C     0.0142     0.6636     0.0536
A_2     C     0.9099     0.9226     0.8937
A_2     C     0.6209     0.6501     0.2723
A_2     C     0.4294     0.1993     0.6458
A_2     C     0.4286     0.0826     0.3629
A_2     C     0.5529     0.9277     0.5239
A_2     C     0.1952     0.2835     0.5654
A_2     C     0.5547     0.2984     0.3508
A_2     C     0.3989     0.9737     0.7271
A_2     C     0.7951     0.1648     0.9442
A_2     C     0.8539     0.4299     0.0334
A_2     C     0.419     0.2477     0.726
A_2     C     0.6337     0.9367     0.0559
A_2     C     0.7277     0.0594     0.2377
A_2     C     0.0908     0.0167     0.1058
A_2     C     0.1825     0.7881     0.5734
A_2     C     0.4921     0.7549     0.5822
A_2     C     0.3987     0.8167     0.8139
A_2     C     0.7348     0.2273     0.5723
A_2     C     0.0422     0.8353     0.0734
A_2     C     0.6406     0.721     0.8152
A_2     C     0.7216     0.9501     0.2607
A_2     C     0.5883     0.7394     0.9923
A_2     C     0.9556     0.5347     0.4125
A_2     C     0.1303     0.2863     0.628
A_2     C     0.683     0.2635     0.2799
A_2     C     0.8777     0.4575     0.7729
A_2     C     0.169     0.9591     0.1583
A_2     C     0.1403     0.3327     0.8928
A_2     C     0.322     0.2035     0.8174
A_2     C     0.0222     0.4538     0.9952
A_2     C     0.7877     0.513     0.7364
A_2     C     0.1099     0.9748     0.682
A_2     C     0.1912     0.0037     0.7065
A_2     C     0.5426     0.2304     0.2473
A_2     C     0.0194     0.609     0.7909
A_2     C     0.6786     0.5155     0.5148
A_2     C     0.0372     0.4048     0.5507
A_2     C     0.769     0.159     0.2176
A_2     C     0.7319     0.0821     0.4246
A_2     C     0.9516     0.9205     0.6346
A_2     C     0.9141     0.9078     0.2961
A_2     C     0.2885     0.7807     0.369
A_2     C     0.3791     0.2535     0.936
A_2     C     0.5335     0.2364     0.2242
A_2     C     0.8335     0.7591     0.7817
A_2     C     0.6305     0.6641     0.9473
A_2     C     0.508     0.6513     0.5756
A_2     C     0.9201     0.5806     0.2305
A_2     C     0.2451     0.0681     0.7242
A_2     C     0.9603     0.6002     0.5647
A_2     C     0.7821     0.7068     0.9183
A_2     C     0.3257     0.6603     0.9359
A_2     C     0.7696     0.9905     0.3948
A_2     C     0.3942     0.6799     0.0095
A_2     C     0.9901     0.0524     0.6892
A_2     C     0.0597     0.7729     0.1838
