MAT-66

loop_
_symmetry_equiv_pos_as_xyz
  x,y,z
_cell_length_a          35.7272
_cell_length_b          23.4608
_cell_length_c          39.1644
_cell_angle_alpha       90.0000
_cell_angle_beta        90.0000
_cell_angle_gamma       90.0000
loop_
_atom_site_label
_atom_site_type_symbol
_atom_site_fract_x
_atom_site_fract_y
_atom_site_fract_z
A_3     C     0.4795     0.1981     0.1389
A_0     C     0.5251     0.1506     0.555
A_3     C     0.2158     0.2388     0.9283
A_0     C     0.0794     0.8653     0.7525
A_1     C     0.0445     0.9673     0.1134
A_1     C     0.758     0.0196     0.6029
A_3     C     0.3701     0.549     0.4272
A_3     C     0.1054     0.4884     0.1348
A_3     C     0.1565     0.4047     0.0902
A_3     C     0.8277     0.7162     0.9273
A_3     C     0.8728     0.0577     0.8643
A_3     C     0.1369     0.1483     0.454
A_3     C     0.1577     0.8954     0.2266
A_3     C     0.86     0.6642     0.933
A_3     C     0.7712     0.678     0.0785
A_3     C     0.0313     0.8537     0.8762
A_3     C     0.2507     0.144     0.5961
A_3     C     0.0073     0.912     0.5331
A_3     C     0.8516     0.7843     0.7922
A_3     C     0.5742     0.336     0.4126
A_3     C     0.7345     0.7067     0.7661
A_3     C     0.5415     0.4814     0.5979
A_3     C     0.0586     0.0798     0.4294
A_3     C     0.1295     0.4221     0.7331
A_3     C     0.7624     0.5571     0.6431
A_3     C     0.7797     0.3272     0.059
A_3     C     0.877     0.2272     0.3282
A_3     C     0.4278     0.0671     0.3094
A_3     C     0.7817     0.3151     0.5644
A_3     C     0.5542     0.7005     0.8697
A_3     C     0.759     0.1911     0.1762
A_3     C     0.4114     0.1625     0.2981
A_3     C     0.2469     0.0848     0.4052
A_3     C     0.0738     0.0392     0.9727
A_3     C     0.2452     0.679     0.5538
A_3     C     0.5636     0.2468     0.2233
A_3     C     0.49     0.1449     0.2774
A_3     C     0.1422     0.9676     0.2519
A_3     C     0.4459     0.5469     0.7127
A_3     C     0.5929     0.4882     0.6035
A_3     C     0.921     0.6826     0.3505
A_3     C     0.4795     0.8318     0.6767
A_3     C     0.6753     0.6358     0.5724
A_3     C     0.6518     0.1289     0.6884
A_3     C     0.9345     0.4294     0.8544
A_3     C     0.1536     0.1337     0.8174
A_3     C     0.2512     0.6079     0.4351
A_3     C     0.7188     0.4915     0.9877
A_3     C     0.0423     0.8622     0.5939
A_3     C     0.5318     0.8664     0.6144
A_3     C     0.5702     0.7673     0.359
A_3     C     0.7234     0.3935     0.8654
A_3     C     0.3503     0.4094     0.1095
A_3     C     0.8325     0.8884     0.7391
A_3     C     0.8064     0.6451     0.1245
A_3     C     0.5305     0.6753     0.3144
A_3     C     0.8903     0.0832     0.7461
A_3     C     0.7748     0.2681     0.4833
A_3     C     0.2978     0.3015     0.1249
A_3     C     0.2673     0.3573     0.4448
A_3     C     0.2174     0.8698     0.1237
A_3     C     0.0386     0.7671     0.394
A_3     C     0.3803     0.2607     0.4976
A_3     C     0.2388     0.9514     0.9028
A_3     C     0.7949     0.9688     0.6098
A_3     C     0.9664     0.4022     0.9177
A_3     C     0.2193     0.0894     0.5433
A_3     C     0.3067     0.8345     0.6566
A_3     C     0.2956     0.1002     0.9985
A_3     C     0.9696     0.7645     0.4404
A_3     C     0.1941     0.0888     0.3457
A_3     C     0.1331     0.4393     0.5038
A_3     C     0.4878     0.4987     0.0942
A_3     C     0.4033     0.9979     0.1761
A_3     C     0.1217     0.1727     0.103
A_3     C     0.5084     0.9323     0.5643
A_3     C     0.7164     0.3355     0.6371
A_3     C     0.739     0.7738     0.6757
A_3     C     0.5241     0.9599     0.1734
A_3     C     0.6813     0.0649     0.6231
A_3     C     0.6301     0.3793     0.7662
A_3     C     0.8501     0.2651     0.3133
A_3     C     0.6502     0.0385     0.7149
A_3     C     0.2599     0.0797     0.9482
A_3     C     0.5111     0.5908     0.5089
A_3     C     0.8013     0.8796     0.4673
A_3     C     0.518     0.9897     0.4071
A_3     C     0.2234     0.7654     0.2507
A_3     C     0.7176     0.735     0.0913
A_3     C     0.1293     0.9978     0.0683
A_3     C     0.2765     0.3664     0.2458
A_3     C     0.5594     0.9356     0.4155
A_3     C     0.4485     0.1347     0.8626
A_3     C     0.7998     0.199     0.3612
A_3     C     0.4027     0.0574     0.2716
A_3     C     0.6701     0.8385     0.8641
A_3     C     0.3446     0.8872     0.1425
A_3     C     0.7268     0.5213     0.3093
A_3     C     0.3964     0.6646     0.0852
A_3     C     0.3465     0.6457     0.8998
A_3     C     0.0578     0.4518     0.2678
A_3     C     0.0373     0.7821     0.3524
A_3     C     0.0604     0.6672     0.8314
A_3     C     0.8042     0.9693     0.8477
A_3     C     0.5063     0.8027     0.2366
A_3     C     0.7619     0.8822     0.9548
A_3     C     0.4732     0.8032     0.1194
A_3     C     0.8847     0.9393     0.3048
A_3     C     0.0579     0.6257     0.5271
A_3     C     0.8286     0.9938     0.1432
A_3     C     0.8899     0.1811     0.9167
A_3     C     0.2531     0.9149     0.0941
A_3     C     0.7875     0.2829     0.4965
A_3     C     0.9537     0.837     0.0521
A_3     C     0.3439     0.4694     0.1909
A_3     C     0.3679     0.3092     0.4322
A_3     C     0.6779     0.4514     0.1392
A_3     C     0.928     0.7536     0.9756
A_3     C     0.7406     0.2692     0.3451
A_3     C     0.9057     0.4439     0.9022
A_3     C     0.8323     0.3942     0.4314
A_3     C     0.4641     0.7806     0.4967
A_3     C     0.3747     0.8523     0.6812
A_3     C     0.3087     0.9253     0.1406
A_3     C     0.8922     0.2201     0.8414
A_3     C     0.3739     0.293     0.9042
A_3     C     0.8606     0.6642     0.4491
A_3     C     0.2605     0.7136     0.4115
A_3     C     0.961     0.2746     0.6569
A_3     C     0.8566     0.5121     0.4191
A_3     C     0.7943     0.4669     0.1191
A_3     C     0.1877     0.6135     0.4232
A_3     C     0.4359     0.7142     0.5631
A_3     C     0.7352     0.5177     0.2531
A_3     C     0.2442     0.1326     0.9275
A_3     C     0.5904     0.2551     0.0107
A_3     C     0.6549     0.7907     0.3292
A_3     C     0.7366     0.599     0.7425
A_3     C     0.431     0.3921     0.1893
A_3     C     0.6832     0.4843     0.0932
A_3     C     0.0658     0.9745     0.6194
A_3     C     0.1147     0.2418     0.2886
A_3     C     0.4807     0.1653     0.7772
A_3     C     0.9289     0.908     0.0655
A_3     C     0.4257     0.2879     0.0893
A_3     C     0.2233     0.5362     0.9142
A_3     C     0.2239     0.3037     0.5987
A_3     C     0.8334     0.4598     0.0822
A_3     C     0.5266     0.8173     0.6796
A_3     C     0.8622     0.5232     0.6773
A_3     C     0.6811     0.1131     0.5122
A_3     C     0.4266     0.3863     0.1901
A_3     C     0.5176     0.8827     0.5921
A_3     C     0.2688     0.3334     0.7394
A_3     C     0.2657     0.7309     0.6045
A_3     C     0.2309     0.498     0.9993
A_3     C     0.7116     0.0091     0.4331
A_3     C     0.7983     0.3662     0.9324
A_3     C     0.1063     0.8787     0.575
A_3     C     0.7103     0.2989     0.7362
A_3     C     0.9483     0.549     0.5958
A_3     C     0.4432     0.9184     0.4022
A_3     C     0.7738     0.9828     0.0941
A_3     C     0.6389     0.5163     0.7808
A_3     C     0.6634     0.9963     0.2134
A_3     C     0.4852     0.0773     0.1983
A_3     C     0.4816     0.5034     0.5505
A_3     C     0.6551     0.9407     0.379
A_3     C     0.376     0.7901     0.9277
A_3     C     0.2129     0.2864     0.7071
A_3     C     0.8983     0.9603     0.4807
A_3     C     0.7259     0.3848     0.0371
A_3     C     0.5153     0.1854     0.7911
A_3     C     0.6722     0.5459     0.4046
A_3     C     0.3536     0.069     0.7876
A_3     C     0.3362     0.1428     0.3673
A_3     C     0.543     0.791     0.1508
A_3     C     0.781     0.403     0.5605
A_3     C     0.6711     0.2339     0.4653
A_3     C     0.3729     0.1278     0.4227
A_3     C     0.634     0.7227     0.7199
A_3     C     0.6998     0.5532     0.5353
A_3     C     0.1852     0.5144     0.0576
A_3     C     0.9277     0.761     0.8367
A_3     C     0.1992     0.5919     0.0967
A_3     C     0.0887     0.8502     0.1271
A_3     C     0.9474     0.96     0.5787
A_3     C     0.3185     0.9258     0.7694
A_3     C     0.8869     0.6441     0.1097
A_3     C     0.9237     0.5967     0.9478
A_3     C     0.6415     0.8726     0.7247
A_3     C     0.3398     0.1603     0.5816
A_3     C     0.8272     0.8571     0.9721
A_3     C     0.5383     0.3974     0.9982
A_3     C     0.6534     0.9407     0.7161
A_3     C     0.0858     0.7458     0.622
A_3     C     0.9028     0.5096     0.2557
A_3     C     0.5061     0.622     0.9242
A_3     C     0.8192     0.2979     0.3352
A_3     C     0.0618     0.0795     0.1563
A_3     C     0.8518     0.6296     0.7528
A_3     C     0.215     0.9207     0.8633
A_3     C     0.2777     0.0371     0.0348
A_3     C     0.4076     0.6187     0.5023
A_3     C     0.841     0.5844     0.1965
A_3     C     0.0768     0.1438     0.7971
A_3     C     0.2459     0.0434     0.7005
A_3     C     0.549     0.6194     0.5853
A_3     C     0.0791     0.9174     0.1703
A_3     C     0.2179     0.2927     0.4353
A_3     C     0.2856     0.5119     0.3822
A_3     C     0.8947     0.2278     0.2847
A_3     C     0.0043     0.3404     0.4186
A_3     C     0.7787     0.6524     0.9003
A_3     C     0.8263     0.6931     0.1131
A_3     C     0.1047     0.8341     0.8304
A_3     C     0.4365     0.1312     0.7254
A_3     C     0.537     0.1662     0.6326
A_3     C     0.8937     0.3967     0.203
A_3     C     0.836     0.6048     0.8319
A_3     C     0.6585     0.6034     0.9716
A_3     C     0.1539     0.6236     0.4642
A_3     C     0.6338     0.4782     0.8645
A_3     C     0.7286     0.6844     0.9724
A_3     C     0.5006     0.7426     0.596
A_3     C     0.9653     0.2296     0.9042
A_3     C     0.5569     0.091     0.1607
A_3     C     0.2429     0.4279     0.3254
A_3     C     0.9244     0.9347     0.4026
A_3     C     0.6754     0.1538     0.6608
A_3     C     0.5885     0.0003     0.4864
A_3     C     0.5403     0.8611     0.6756
A_3     C     0.1427     0.6441     0.9611
A_3     C     0.8812     0.1932     0.5406
A_3     C     0.409     0.5965     0.0105
A_3     C     0.8036     0.7884     0.3176
A_3     C     0.5695     0.8214     0.5071
A_3     C     0.0813     0.5672     0.3872
