MAT-53

loop_
_symmetry_equiv_pos_as_xyz
  x,y,z
_cell_length_a          38.0712
_cell_length_b          48.37
_cell_length_c          34.1916
_cell_angle_alpha       90.0000
_cell_angle_beta        90.0000
_cell_angle_gamma       90.0000
loop_
_atom_site_label
_atom_site_type_symbol
_atom_site_fract_x
_atom_site_fract_y
_atom_site_fract_z
A_1     C     0.8024     0.2683     0.8889
A_3     C     0.7664     0.4385     0.5945
A_0     C     0.9077     0.8962     0.9022
A_2     C     0.0751     0.3019     0.5986
A_0     C     0.2958     0.393     0.0858
A_3     C     0.2296     0.9085     0.6414
A_2     C     0.5559     0.5308     0.1701
A_3     C     0.6649     0.966     0.6903
A_3     C     0.0314     0.9961     0.5482
A_2     C     0.8813     0.617     0.6418
A_3     C     0.0     0.7818     0.8915
A_2     C     0.635     0.9528     0.7291
A_3     C     0.7191     0.6043     0.04
A_2     C     0.6234     0.9442     0.8266
A_3     C     0.4     0.7981     0.923
A_0     C     0.8657     0.986     0.0119
A_3     C     0.9024     0.4266     0.7045
A_3     C     0.5787     0.1915     0.1156
A_3     C     0.4709     0.2956     0.8613
A_1     C     0.6974     0.4689     0.7725
A_1     C     0.9043     0.3299     0.3884
A_1     C     0.9892     0.8133     0.266
A_2     C     0.4769     0.8456     0.0932
A_2     C     0.6159     0.8605     0.6353
A_1     C     0.5186     0.4149     0.3292
A_3     C     0.3924     0.4065     0.642
A_3     C     0.4342     0.6821     0.6595
A_2     C     0.5197     0.3444     0.5511
A_1     C     0.2266     0.1874     0.1509
A_3     C     0.2139     0.8887     0.4146
A_1     C     0.2681     0.5934     0.8422
A_0     C     0.6146     0.5345     0.0996
A_2     C     0.787     0.6204     0.3996
A_3     C     0.0108     0.3871     0.1736
A_3     C     0.6986     0.5704     0.9347
A_3     C     0.7093     0.6626     0.102
A_3     C     0.1423     0.797     0.9535
A_2     C     0.4857     0.7396     0.6629
A_3     C     0.9917     0.7428     0.1033
A_3     C     0.1278     0.8177     0.7886
A_1     C     0.5931     0.158     0.5314
A_2     C     0.704     0.0994     0.3987
A_2     C     0.1869     0.93     0.9031
A_0     C     0.8835     0.2008     0.4637
A_3     C     0.8343     0.6159     0.2844
A_2     C     0.2543     0.1404     0.7473
A_0     C     0.7642     0.2807     0.5952
A_2     C     0.5755     0.301     0.9762
A_3     C     0.4805     0.7407     0.4814
A_3     C     0.7552     0.3135     0.2224
A_2     C     0.9776     0.4565     0.1635
A_2     C     0.1715     0.1543     0.3204
A_2     C     0.0196     0.5971     0.0054
A_3     C     0.6208     0.9368     0.9032
A_0     C     0.2448     0.9713     0.6299
A_1     C     0.3319     0.0408     0.3073
A_1     C     0.835     0.0546     0.6475
A_1     C     0.6517     0.5553     0.1715
A_3     C     0.9135     0.8341     0.1627
A_2     C     0.2913     0.4317     0.288
A_1     C     0.8131     0.3104     0.8949
A_3     C     0.0568     0.4561     0.6569
A_2     C     0.4531     0.919     0.8718
A_0     C     0.1026     0.0221     0.6148
A_0     C     0.0984     0.1462     0.2029
A_3     C     0.5303     0.0054     0.8456
A_0     C     0.3299     0.4958     0.2855
A_0     C     0.6601     0.0664     0.9946
A_0     C     0.6372     0.444     0.5824
A_0     C     0.2638     0.436     0.7566
A_3     C     0.5805     0.0064     0.8717
A_2     C     0.3505     0.3231     0.7246
A_1     C     0.1598     0.8626     0.4576
A_3     C     0.4304     0.3897     0.5569
A_3     C     0.2659     0.4634     0.0207
A_1     C     0.3853     0.7607     0.8088
A_3     C     0.6933     0.1852     0.0836
A_0     C     0.0382     0.4588     0.2314
A_1     C     0.2637     0.8281     0.3755
A_1     C     0.7393     0.8116     0.9483
A_2     C     0.7009     0.7351     0.6678
A_1     C     0.8886     0.9261     0.9827
A_2     C     0.4829     0.2656     0.2383
A_2     C     0.5407     0.52     0.0058
A_0     C     0.4003     0.7534     0.131
A_1     C     0.5785     0.9362     0.6757
A_2     C     0.489     0.8339     0.5104
A_3     C     0.0672     0.08     0.1801
A_3     C     0.4412     0.5065     0.1599
A_1     C     0.1101     0.7631     0.8666
A_2     C     0.9341     0.9101     0.3617
A_1     C     0.22     0.8972     0.7909
A_2     C     0.4881     0.6836     0.6839
A_2     C     0.1836     0.9218     0.493
A_2     C     0.7697     0.9992     0.3183
A_3     C     0.2111     0.6253     0.9046
A_2     C     0.4269     0.096     0.101
A_1     C     0.6694     0.1892     0.1892
A_1     C     0.8699     0.7288     0.5065
A_1     C     0.6724     0.0442     0.1935
A_1     C     0.5658     0.8572     0.781
A_3     C     0.9115     0.8349     0.1047
A_3     C     0.8821     0.6246     0.5123
A_3     C     0.045     0.9997     0.8393
A_0     C     0.0736     0.6399     0.0171
A_1     C     0.1492     0.0036     0.353
A_3     C     0.6732     0.3127     0.8857
A_3     C     0.7083     0.8384     0.8786
A_0     C     0.7879     0.2593     0.3904
A_0     C     0.2093     0.8539     0.6361
A_1     C     0.9962     0.141     0.9194
A_2     C     0.3286     0.3908     0.3454
A_0     C     0.285     0.1857     0.2878
A_1     C     0.1079     0.764     0.6349
A_1     C     0.3053     0.3556     0.3373
A_1     C     0.9177     0.4519     0.5651
A_1     C     0.0901     0.8633     0.9041
A_2     C     0.4887     0.0517     0.8158
A_3     C     0.9366     0.7355     0.5868
A_3     C     0.0628     0.8296     0.6806
A_3     C     0.6153     0.4067     0.6835
A_2     C     0.245     0.3281     0.173
A_0     C     0.1824     0.1261     0.2053
A_3     C     0.646     0.9311     0.1064
A_2     C     0.0981     0.552     0.7213
A_0     C     0.3384     0.7485     0.5459
A_1     C     0.2058     0.0524     0.269
A_2     C     0.842     0.4565     0.9582
A_1     C     0.653     0.296     0.2495
A_1     C     0.1223     0.7837     0.6213
A_3     C     0.1054     0.3475     0.3467
A_0     C     0.9782     0.8483     0.4349
A_3     C     0.6694     0.756     0.9052
A_0     C     0.1009     0.9339     0.0059
A_2     C     0.6051     0.5132     0.2815
A_1     C     0.0882     0.8051     0.593
A_1     C     0.6258     0.0451     0.0672
A_0     C     0.0564     0.5922     0.3171
A_2     C     0.9703     0.0393     0.9289
A_2     C     0.128     0.1777     0.1145
A_0     C     0.2428     0.2795     0.571
A_0     C     0.4586     0.5067     0.769
A_0     C     0.8113     0.2694     0.9834
A_2     C     0.7735     0.9956     0.5134
A_2     C     0.5277     0.3291     0.6474
A_2     C     0.6912     0.3229     0.752
A_2     C     0.0989     0.8262     0.9733
A_1     C     0.0376     0.042     0.7302
A_3     C     0.8922     0.2713     0.7732
A_2     C     0.3469     0.171     0.5845
A_0     C     0.3302     0.8827     0.4706
A_3     C     0.9116     0.4748     0.9825
A_1     C     0.5664     0.7982     0.5945
A_0     C     0.8429     0.2955     0.9807
A_3     C     0.0038     0.7179     0.4772
A_2     C     0.8428     0.7936     0.0635
A_3     C     0.4736     0.5946     0.5686
A_2     C     0.8494     0.3946     0.5831
A_0     C     0.1249     0.7824     0.8157
A_1     C     0.6425     0.8582     0.1975
A_0     C     0.688     0.7485     0.0772
A_2     C     0.9457     0.5546     0.1336
A_3     C     0.1337     0.4692     0.4589
A_3     C     0.9158     0.7542     0.6514
A_0     C     0.8424     0.1099     0.6173
A_0     C     0.6803     0.2638     0.937
A_3     C     0.6325     0.2822     0.5426
A_0     C     0.5047     0.6295     0.5122
A_2     C     0.8099     0.6077     0.2603
A_0     C     0.2982     0.8057     0.0467
A_2     C     0.9715     0.5762     0.7514
A_2     C     0.9636     0.7515     0.1371
A_0     C     0.5027     0.8833     0.2603
A_1     C     0.6859     0.0452     0.2042
A_0     C     0.8532     0.7181     0.2556
A_0     C     0.2119     0.3368     0.9627
A_1     C     0.2083     0.6669     0.4576
A_3     C     0.6618     0.5749     0.5295
A_0     C     0.346     0.6148     0.6568
A_1     C     0.6372     0.7779     0.7296
A_0     C     0.5233     0.9933     0.7865
A_0     C     0.0311     0.0988     0.1708
A_2     C     0.7696     0.5299     0.2649
A_1     C     0.5934     0.9033     0.8498
A_1     C     0.3194     0.974     0.0509
A_1     C     0.4098     0.1943     0.9115
A_3     C     0.8365     0.5028     0.6687
A_0     C     0.871     0.3395     0.9998
A_2     C     0.1133     0.255     0.6364
A_1     C     0.0747     0.8326     0.2745
A_0     C     0.581     0.3996     0.6575
A_2     C     0.5505     0.5514     0.7326
A_3     C     0.9021     0.4756     0.4063
A_3     C     0.4127     0.2287     0.0103
A_0     C     0.7549     0.1993     0.2133
A_0     C     0.13     0.2726     0.7049
A_2     C     0.877     0.2758     0.4369
A_1     C     0.2505     0.4259     0.775
A_0     C     0.1282     0.6884     0.8396
A_1     C     0.1874     0.534     0.9356
A_3     C     0.6496     0.4553     0.4004
A_0     C     0.171     0.9347     0.9696
A_0     C     0.0083     0.4177     0.7284
A_2     C     0.3764     0.9152     0.7002
A_1     C     0.8723     0.6578     0.9007
A_3     C     0.3045     0.137     0.2569
A_2     C     0.3686     0.7509     0.4955
A_1     C     0.2084     0.9134     0.3316
A_3     C     0.3405     0.4006     0.6697
A_0     C     0.1796     0.7021     0.3611
A_3     C     0.6175     0.0268     0.7464
A_2     C     0.5686     0.776     0.0216
A_2     C     0.0116     0.1616     0.5095
A_2     C     0.2464     0.9569     0.2485
A_1     C     0.2466     0.5039     0.0181
A_3     C     0.7721     0.5783     0.4277
A_1     C     0.1576     0.4649     0.85
A_2     C     0.4685     0.7655     0.804
A_3     C     0.2997     0.5132     0.9693
A_3     C     0.3013     0.3957     0.1425
A_1     C     0.4226     0.5708     0.1186
A_2     C     0.9483     0.979     0.1448
A_1     C     0.0249     0.3537     0.9165
A_0     C     0.4478     0.3861     0.1239
A_2     C     0.2828     0.6172     0.366
A_1     C     0.4001     0.6224     0.9124
A_1     C     0.102     0.9849     0.141
A_3     C     0.2615     0.9335     0.4194
A_0     C     0.8976     0.3996     0.8208
A_3     C     0.3912     0.6736     0.8709
A_2     C     0.1105     0.1464     0.9329
A_0     C     0.098     0.2473     0.4237
A_3     C     0.6092     0.3862     0.3304
A_0     C     0.6472     0.4153     0.4346
A_2     C     0.1472     0.6099     0.3845
A_3     C     0.5981     0.829     0.3131
A_0     C     0.1765     0.9223     0.9924
A_1     C     0.577     0.9767     0.9634
A_2     C     0.5749     0.0332     0.4109
A_1     C     0.2866     0.1445     0.0982
A_2     C     0.926     0.7867     0.577
A_1     C     0.2596     0.5809     0.8456
A_2     C     0.3679     0.6566     0.3894
A_0     C     0.1056     0.7135     0.7559
A_2     C     0.0118     0.0688     0.5942
A_0     C     0.8826     0.6714     0.8672
A_3     C     0.8022     0.7526     0.6792
A_0     C     0.0008     0.4322     0.9029
A_1     C     0.0269     0.3723     0.4392
A_0     C     0.2043     0.3275     0.0814
A_1     C     0.9194     0.8431     0.4174
A_1     C     0.1794     0.4838     0.6337
A_3     C     0.7939     0.8802     0.8637
A_0     C     0.1595     0.2234     0.2714
A_1     C     0.8402     0.6465     0.3874
A_3     C     0.4461     0.0099     0.1707
A_2     C     0.9362     0.1837     0.0621
A_2     C     0.4117     0.2388     0.6784
A_1     C     0.8991     0.9368     0.3822
A_2     C     0.3183     0.3473     0.0124
A_3     C     0.4817     0.1219     0.4144
A_0     C     0.5967     0.5517     0.4059
A_2     C     0.3452     0.4907     0.8963
A_2     C     0.7312     0.8865     0.0684
A_1     C     0.1692     0.8179     0.5093
A_3     C     0.0532     0.3501     0.4439
A_2     C     0.59     0.9893     0.0829
A_3     C     0.6381     0.3419     0.7485
