MAT-98

loop_
_symmetry_equiv_pos_as_xyz
  x,y,z
_cell_length_a          34.128
_cell_length_b          22.5088
_cell_length_c          40.6872
_cell_angle_alpha       90.0000
_cell_angle_beta        90.0000
_cell_angle_gamma       90.0000
loop_
_atom_site_label
_atom_site_type_symbol
_atom_site_fract_x
_atom_site_fract_y
_atom_site_fract_z
A_3     C     0.4358     0.2202     0.0129
A_0     C     0.5571     0.1623     0.5723
A_3     C     0.2549     0.234     0.7454
A_0     C     0.2216     0.8876     0.775
A_1     C     0.0538     0.9743     0.0208
A_1     C     0.7553     0.9376     0.6077
A_3     C     0.3792     0.5062     0.5501
A_3     C     0.0428     0.2217     0.7906
A_3     C     0.4136     0.1663     0.2806
A_3     C     0.9664     0.3461     0.5744
A_3     C     0.0651     0.4406     0.5388
A_3     C     0.479     0.109     0.7668
A_3     C     0.1803     0.5655     0.4932
A_3     C     0.167     0.7046     0.1026
A_3     C     0.7242     0.8158     0.5949
A_3     C     0.5084     0.5876     0.1348
A_3     C     0.9871     0.8111     0.848
A_3     C     0.6058     0.2999     0.8319
A_3     C     0.1274     0.6972     0.1387
A_3     C     0.5576     0.6259     0.7612
A_3     C     0.2473     0.2621     0.717
A_3     C     0.3335     0.9216     0.1556
A_3     C     0.9478     0.18     0.2856
A_3     C     0.3796     0.8247     0.094
A_3     C     0.6163     0.2782     0.2808
A_3     C     0.1744     0.4357     0.4409
A_3     C     0.9612     0.7496     0.7156
A_3     C     0.9535     0.5467     0.8936
A_3     C     0.9362     0.7613     0.1273
A_3     C     0.5271     0.5229     0.8608
A_3     C     0.3587     0.728     0.6487
A_3     C     0.453     0.7701     0.1254
A_3     C     0.9286     0.6656     0.5055
A_3     C     0.6161     0.2905     0.0582
A_3     C     0.1709     0.126     0.1408
A_3     C     0.9964     0.8279     0.3403
A_3     C     0.5602     0.8712     0.6567
A_3     C     0.7078     0.1851     0.9049
A_3     C     0.3301     0.9372     0.7464
A_3     C     0.7447     0.0236     0.1506
A_3     C     0.6754     0.356     0.4874
A_3     C     0.0345     0.0833     0.615
A_3     C     0.859     0.7106     0.6155
A_3     C     0.9673     0.9063     0.3852
A_3     C     0.9953     0.7659     0.363
A_3     C     0.0516     0.7495     0.7516
A_3     C     0.7118     0.2973     0.527
A_3     C     0.7842     0.252     0.2331
A_3     C     0.4522     0.6485     0.6711
A_3     C     0.9367     0.4297     0.2219
A_3     C     0.2306     0.4837     0.558
A_3     C     0.7754     0.06     0.3583
A_3     C     0.8356     0.1325     0.0028
A_3     C     0.0711     0.6118     0.8793
A_3     C     0.7781     0.6032     0.2908
A_3     C     0.3402     0.4316     0.0646
A_3     C     0.7736     0.3358     0.4443
A_3     C     0.6893     0.4372     0.2131
A_3     C     0.4386     0.1489     0.5145
A_3     C     0.3951     0.8299     0.9802
A_3     C     0.1472     0.6282     0.3449
A_3     C     0.5445     0.3748     0.2943
A_3     C     0.232     0.954     0.512
A_3     C     0.4867     0.2609     0.5298
A_3     C     0.1238     0.2546     0.0888
A_3     C     0.4918     0.4048     0.8765
A_3     C     0.7472     0.5878     0.801
A_3     C     0.1091     0.5022     0.336
A_3     C     0.7855     0.9238     0.4455
A_3     C     0.1451     0.6657     0.7107
A_3     C     0.8736     0.9342     0.3035
A_3     C     0.3387     0.9621     0.1127
A_3     C     0.4354     0.2865     0.4887
A_3     C     0.7297     0.2395     0.309
A_3     C     0.249     0.7667     0.2285
A_3     C     0.2804     0.0157     0.5084
A_3     C     0.0109     0.9054     0.9347
A_3     C     0.8805     0.0916     0.895
A_3     C     0.6058     0.2025     0.9517
A_3     C     0.2461     0.7932     0.8978
A_3     C     0.3637     0.3505     0.1538
A_3     C     0.6     0.6407     0.1583
A_3     C     0.2251     0.253     0.952
A_3     C     0.5546     0.2584     0.9293
A_3     C     0.4535     0.8643     0.2856
A_3     C     0.0781     0.0214     0.977
A_3     C     0.5578     0.2045     0.907
A_3     C     0.1496     0.2277     0.3834
A_3     C     0.1818     0.9677     0.697
A_3     C     0.3893     0.5627     0.6762
A_3     C     0.4711     0.2852     0.1116
A_3     C     0.0062     0.5035     0.7578
A_3     C     0.5172     0.9326     0.7617
A_3     C     0.3488     0.5334     0.7116
A_3     C     0.0454     0.9539     0.7521
A_3     C     0.5544     0.0426     0.1529
A_3     C     0.5139     0.8134     0.9016
A_3     C     0.816     0.8294     0.6049
A_3     C     0.0874     0.6043     0.6399
A_3     C     0.9651     0.8612     0.5453
A_3     C     0.7349     0.0622     0.1627
A_3     C     0.8625     0.8751     0.3833
A_3     C     0.4255     0.7624     0.657
A_3     C     0.0864     0.0984     0.2342
A_3     C     0.6092     0.8937     0.9367
A_3     C     0.7227     0.2916     0.2658
A_3     C     0.7081     0.4255     0.4762
A_3     C     0.2426     0.1442     0.2008
A_3     C     0.8101     0.3623     0.947
A_3     C     0.7301     0.4738     0.9866
A_3     C     0.1973     0.5556     0.4339
A_3     C     0.0013     0.8641     0.8053
A_3     C     0.9933     0.1488     0.4353
A_3     C     0.5617     0.4825     0.156
A_3     C     0.8087     0.7328     0.122
A_3     C     0.2223     0.8701     0.6956
A_3     C     0.564     0.0622     0.9249
A_3     C     0.928     0.9052     0.2357
A_3     C     0.5626     0.0468     0.7629
A_3     C     0.0942     0.1297     0.6508
A_3     C     0.0937     0.5423     0.2899
A_3     C     0.0817     0.2662     0.6251
A_3     C     0.8351     0.6885     0.9179
A_3     C     0.9276     0.3103     0.6659
A_3     C     0.2259     0.8995     0.6905
