MAT-95

loop_
_symmetry_equiv_pos_as_xyz
  x,y,z
_cell_length_a          27.4974
_cell_length_b          17.4909
_cell_length_c          47.0177
_cell_angle_alpha       90.0000
_cell_angle_beta        90.0000
_cell_angle_gamma       90.0000
loop_
_atom_site_label
_atom_site_type_symbol
_atom_site_fract_x
_atom_site_fract_y
_atom_site_fract_z
A_0     C     0.7369     0.23     0.5784
A_1     C     0.637     0.3092     0.0026
A_3     C     0.0291     0.8865     0.727
A_2     C     0.9247     0.8309     0.3546
A_1     C     0.542     0.4504     0.2902
A_0     C     0.3806     0.4429     0.8984
A_1     C     0.4367     0.5163     0.407
A_1     C     0.5188     0.0524     0.3766
A_0     C     0.9128     0.9396     0.6189
A_3     C     0.8952     0.6985     0.6807
A_0     C     0.6846     0.3993     0.8598
A_0     C     0.0947     0.9655     0.6142
A_1     C     0.951     0.185     0.7826
A_2     C     0.8674     0.6562     0.2479
A_1     C     0.6198     0.6651     0.3836
A_0     C     0.6233     0.4525     0.9599
A_0     C     0.811     0.3985     0.6808
A_3     C     0.8536     0.8987     0.1578
A_0     C     0.6409     0.1303     0.5025
A_0     C     0.6146     0.4354     0.6438
A_1     C     0.4033     0.0526     0.1431
A_3     C     0.2066     0.7736     0.9516
A_2     C     0.0099     0.0641     0.8994
A_1     C     0.8323     0.9867     0.8851
A_2     C     0.1217     0.9126     0.9479
A_2     C     0.2099     0.1192     0.7138
A_0     C     0.5301     0.6362     0.1563
A_3     C     0.0168     0.5309     0.9736
A_2     C     0.0502     0.0341     0.548
A_1     C     0.0249     0.3303     0.4911
A_3     C     0.8541     0.5907     0.7839
A_3     C     0.641     0.6288     0.4323
A_2     C     0.7963     0.687     0.1114
A_0     C     0.7043     0.3247     0.0696
A_1     C     0.6256     0.4393     0.0729
A_2     C     0.1098     0.8003     0.1749
A_3     C     0.4242     0.9921     0.1704
A_3     C     0.8003     0.1981     0.1489
A_1     C     0.7516     0.5716     0.0747
A_2     C     0.779     0.3202     0.8261
A_0     C     0.935     0.7252     0.5974
A_0     C     0.0164     0.1133     0.4167
A_1     C     0.9721     0.805     0.6402
A_1     C     0.8026     0.5616     0.8905
A_2     C     0.7952     0.8496     0.1165
A_3     C     0.352     0.595     0.9832
A_1     C     0.314     0.2791     0.8969
A_0     C     0.2442     0.4354     0.3028
A_3     C     0.9713     0.4273     0.6765
A_1     C     0.3459     0.5373     0.1595
A_1     C     0.9319     0.281     0.5148
A_2     C     0.679     0.951     0.1128
A_3     C     0.9542     0.3655     0.4217
A_3     C     0.0546     0.065     0.4621
A_3     C     0.7375     0.5223     0.5729
A_1     C     0.2343     0.1805     0.2796
A_2     C     0.975     0.583     0.6145
A_3     C     0.9955     0.9113     0.8932
A_2     C     0.3037     0.5725     0.29
A_2     C     0.5045     0.4148     0.3016
A_1     C     0.1134     0.4789     0.4204
A_1     C     0.3923     0.7034     0.0228
A_3     C     0.0873     0.714     0.4183
A_0     C     0.7329     0.8959     0.2552
A_2     C     0.0489     0.1975     0.3777
A_0     C     0.2644     0.1204     0.173
A_0     C     0.7567     0.6989     0.1343
A_1     C     0.0072     0.5023     0.186
A_1     C     0.4904     0.8125     0.7983
A_2     C     0.3144     0.3602     0.709
A_2     C     0.4896     0.6529     0.0134
A_3     C     0.6817     0.066     0.7778
A_1     C     0.0211     0.3266     0.1027
A_0     C     0.1231     0.3124     0.6902
A_2     C     0.5975     0.9239     0.235
A_3     C     0.2254     0.084     0.5824
A_3     C     0.8368     0.5681     0.5098
A_0     C     0.573     0.8885     0.2102
A_0     C     0.148     0.0908     0.1128
A_2     C     0.5548     0.2395     0.4886
A_3     C     0.8953     0.0214     0.6036
A_1     C     0.1869     0.9068     0.7304
A_2     C     0.742     0.8885     0.7903
A_3     C     0.2919     0.0855     0.8283
A_0     C     0.2704     0.5049     0.7446
A_0     C     0.6981     0.5069     0.3443
A_2     C     0.3197     0.5719     0.1718
A_2     C     0.8241     0.0584     0.3576
A_1     C     0.4405     0.7375     0.8106
A_2     C     0.6697     0.099     0.7783
A_2     C     0.7137     0.2172     0.8417
A_3     C     0.4344     0.2329     0.1778
A_2     C     0.6693     0.7353     0.1192
A_1     C     0.6465     0.9298     0.1066
A_2     C     0.0999     0.709     0.7945
A_1     C     0.2344     0.2816     0.2547
A_3     C     0.1045     0.5324     0.2596
A_1     C     0.2     0.9419     0.1575
A_1     C     0.6877     0.8041     0.9317
A_0     C     0.216     0.5589     0.7719
A_3     C     0.0315     0.1847     0.6094
A_1     C     0.5927     0.3456     0.8939
A_2     C     0.9883     0.233     0.635
A_0     C     0.2434     0.0193     0.6515
A_3     C     0.3655     0.7313     0.9713
A_0     C     0.8542     0.9114     0.9579
A_2     C     0.9201     0.9408     0.6618
A_0     C     0.3077     0.5579     0.7827
A_2     C     0.5002     0.3882     0.8696
A_3     C     0.034     0.9796     0.3274
A_0     C     0.2621     0.2455     0.6098
A_2     C     0.2456     0.8376     0.4346
A_3     C     0.2315     0.3169     0.6003
A_3     C     0.6923     0.0328     0.0971
A_2     C     0.6967     0.8541     0.8343
A_0     C     0.0135     0.3623     0.364
A_3     C     0.3398     0.4235     0.1628
A_1     C     0.2816     0.6572     0.8068
A_2     C     0.7464     0.0099     0.605
A_2     C     0.7611     0.3327     0.2235
A_2     C     0.5444     0.7793     0.6338
A_1     C     0.1846     0.5856     0.1006
A_2     C     0.5457     0.6467     0.9144
A_3     C     0.2423     0.5399     0.0037
A_0     C     0.818     0.1275     0.0405
A_0     C     0.263     0.5567     0.1103
A_2     C     0.3863     0.4506     0.2556
A_3     C     0.9774     0.0726     0.2271
A_0     C     0.1649     0.6955     0.831
A_2     C     0.6754     0.5736     0.9669
A_1     C     0.1285     0.8082     0.1186
A_3     C     0.5228     0.8476     0.0417
A_1     C     0.7689     0.0014     0.2446
A_2     C     0.0433     0.3652     0.3947
A_1     C     0.2981     0.6057     0.3743
A_0     C     0.2706     0.6951     0.9717
A_0     C     0.9109     0.2929     0.7807
A_2     C     0.0201     0.6455     0.2804
A_3     C     0.7693     0.894     0.7682
A_0     C     0.217     0.7231     0.851
A_1     C     0.636     0.6581     0.1047
A_3     C     0.7146     0.0618     0.2484
A_3     C     0.613     0.9371     0.0125
A_0     C     0.7174     0.7626     0.2354
A_0     C     0.6521     0.8603     0.8384
A_0     C     0.521     0.6422     0.8157
A_3     C     0.8478     0.6595     0.3788
A_0     C     0.6008     0.0542     0.7754
A_0     C     0.2239     0.7073     0.5726
A_1     C     0.3354     0.1848     0.2305
A_2     C     0.1919     0.9225     0.259
A_2     C     0.2069     0.2571     0.0766
A_0     C     0.7566     0.9233     0.7944
A_2     C     0.1761     0.9233     0.7491
A_3     C     0.2925     0.7017     0.2293
A_1     C     0.34     0.8131     0.3041
A_0     C     0.7952     0.541     0.6128
A_0     C     0.6936     0.0745     0.2652
A_3     C     0.8696     0.473     0.9562
A_2     C     0.2747     0.7463     0.5738
A_3     C     0.4453     0.2778     0.6674
A_0     C     0.5765     0.1232     0.3096
A_3     C     0.9162     0.1617     0.4569
A_2     C     0.6403     0.9037     0.2049
A_0     C     0.0202     0.9688     0.7947
A_0     C     0.456     0.2005     0.9227
A_1     C     0.4407     0.4745     0.6182
A_2     C     0.4763     0.7655     0.564
A_2     C     0.697     0.2761     0.7299
A_2     C     0.1964     0.2484     0.4338
A_3     C     0.8426     0.9446     0.119
A_3     C     0.0496     0.4363     0.2107
A_3     C     0.5884     0.87     0.7912
A_2     C     0.8883     0.2566     0.7521
A_0     C     0.9722     0.491     0.222
A_1     C     0.8099     0.5964     0.8562
A_2     C     0.1429     0.9234     0.4038
A_2     C     0.9364     0.4827     0.5416
A_0     C     0.7906     0.7265     0.9623
A_2     C     0.2596     0.8984     0.0431
A_3     C     0.7861     0.4358     0.9379
A_3     C     0.6712     0.6423     0.4089
A_3     C     0.2916     0.688     0.9446
A_3     C     0.1681     0.315     0.8499
A_2     C     0.3735     0.3435     0.4421
A_2     C     0.4953     0.4614     0.9854
A_2     C     0.595     0.898     0.7721
A_1     C     0.5021     0.6931     0.4654
A_3     C     0.4632     0.4628     0.1382
A_3     C     0.0759     0.0524     0.5635
A_3     C     0.344     0.4828     0.9784
A_0     C     0.0405     0.8865     0.6224
A_1     C     0.3074     0.018     0.8634
A_2     C     0.2784     0.0588     0.6573
A_2     C     0.4084     0.9691     0.6654
A_2     C     0.7085     0.7681     0.8942
A_0     C     0.3058     0.9876     0.5328
A_2     C     0.0491     0.7901     0.3639
A_3     C     0.7923     0.49     0.6674
A_3     C     0.1888     0.7768     0.7537
A_1     C     0.6358     0.4114     0.8749
A_3     C     0.6822     0.3812     0.6793
A_0     C     0.3631     0.6451     0.8036
A_3     C     0.1372     0.9382     0.6464
A_3     C     0.3951     0.4913     0.0258
A_3     C     0.9112     0.9081     0.5718
A_1     C     0.1489     0.7657     0.823
A_2     C     0.3309     0.0272     0.6417
A_0     C     0.2131     0.3579     0.5721
A_0     C     0.5944     0.2029     0.779
A_2     C     0.4241     0.8801     0.2273
A_2     C     0.1558     0.5167     0.9487
A_3     C     0.9021     0.3226     0.3308
A_0     C     0.248     0.0002     0.3168
A_0     C     0.2999     0.0149     0.4656
A_0     C     0.3777     0.7981     0.0174
A_1     C     0.7145     0.7635     0.4413
A_0     C     0.8243     0.9966     0.3757
A_3     C     0.832     0.2461     0.1586
A_1     C     0.5598     0.0787     0.5797
A_0     C     0.9749     0.7985     0.3803
A_3     C     0.3774     0.0859     0.7806
A_2     C     0.517     0.4763     0.1238
A_3     C     0.0791     0.1143     0.9555
A_3     C     0.4228     0.3176     0.8945
A_0     C     0.9761     0.4677     0.6395
A_2     C     0.8216     0.0681     0.5791
A_1     C     0.2536     0.9984     0.8849
A_3     C     0.0469     0.5397     0.2484
A_0     C     0.062     0.7691     0.5161
A_0     C     0.9278     0.7136     0.6085
A_2     C     0.3472     0.5664     0.689
A_3     C     0.145     0.4513     0.7913
A_3     C     0.4364     0.6667     0.909
A_1     C     0.8281     0.566     0.7843
A_2     C     0.1799     0.3725     0.3143
A_0     C     0.1016     0.8     0.42
A_3     C     0.2831     0.3147     0.5041
A_0     C     0.0412     0.892     0.5532
A_3     C     0.7384     0.6838     0.9476
A_3     C     0.736     0.3191     0.1642
A_1     C     0.5273     0.8536     0.1621
A_2     C     0.7628     0.3175     0.8652
A_1     C     0.9981     0.6493     0.3506
A_3     C     0.5371     0.7975     0.0038
A_1     C     0.112     0.9953     0.4415
A_1     C     0.0541     0.213     0.5071
A_0     C     0.6799     0.6363     0.1835
A_0     C     0.8705     0.7989     0.3771
A_2     C     0.8219     0.3167     0.842
A_1     C     0.3558     0.0879     0.3783
A_0     C     0.9517     0.173     0.5238
A_2     C     0.1707     0.8316     0.2559
A_0     C     0.8298     0.5496     0.6235
A_1     C     0.9484     0.5919     0.1342
A_2     C     0.5196     0.7768     0.9214
A_2     C     0.4028     0.971     0.3345
A_0     C     0.6242     0.6353     0.0887
A_1     C     0.1668     0.6053     0.7317
A_3     C     0.9999     0.3207     0.2102
A_0     C     0.0486     0.4495     0.4297
A_1     C     0.2263     0.5298     0.7746
A_0     C     0.7382     0.8144     0.1934
A_0     C     0.6974     0.2434     0.8139
A_1     C     0.3229     0.9142     0.3374
A_1     C     0.2989     0.524     0.0792
A_1     C     0.2051     0.638     0.7645
A_0     C     0.9041     0.0539     0.0883
A_2     C     0.7677     0.7882     0.7411
A_0     C     0.9364     0.1275     0.1518
A_1     C     0.5672     0.1727     0.7527
A_0     C     0.1495     0.3544     0.0506
A_0     C     0.4448     0.0256     0.4177
A_0     C     0.5914     0.3423     0.5033
A_1     C     0.5212     0.2419     0.0937
A_2     C     0.486     0.0919     0.2854
A_3     C     0.6611     0.0701     0.3422
A_2     C     0.1209     0.3341     0.665
A_0     C     0.4677     0.5006     0.1167
A_0     C     0.7947     0.1433     0.1809
A_1     C     0.804     0.213     0.6934
A_3     C     0.3728     0.6888     0.2694
A_1     C     0.1648     0.9363     0.8731
A_2     C     0.5423     0.715     0.2081
A_2     C     0.9433     0.3101     0.1491
A_2     C     0.7793     0.776     0.7859
A_3     C     0.4627     0.5461     0.87
A_2     C     0.1396     0.422     0.7079
A_2     C     0.1624     0.7607     0.2036
A_3     C     0.0126     0.3061     0.8718
A_0     C     0.3342     0.5431     0.3431
A_0     C     0.7537     0.8893     0.3119
A_2     C     0.0626     0.7444     0.5311
A_2     C     0.8546     0.7566     0.6436
A_0     C     0.7006     0.2825     0.3462
A_2     C     0.7261     0.2244     0.0713
A_1     C     0.9488     0.2337     0.963
A_1     C     0.8786     0.7659     0.4089
A_3     C     0.7204     0.0854     0.5565
A_0     C     0.9865     0.0009     0.9801
A_2     C     0.2332     0.0737     0.1818
A_2     C     0.5744     0.4347     0.0084
A_3     C     0.1432     0.8406     0.8778
A_0     C     0.4847     0.855     0.698
A_0     C     0.8062     0.6032     0.1993
A_0     C     0.0059     0.8894     0.5565
A_0     C     0.6539     0.6815     0.9297
A_2     C     0.1609     0.3581     0.2572
A_3     C     0.2785     0.1064     0.1225
A_1     C     0.393     0.4928     0.1748
A_3     C     0.3941     0.3599     0.1891
A_2     C     0.2716     0.2457     0.9337
A_2     C     0.5578     0.8368     0.7
A_1     C     0.9334     0.4768     0.7074
A_1     C     0.9207     0.654     0.395
A_1     C     0.1111     0.5682     0.2879
A_3     C     0.0472     0.5677     0.6791
A_3     C     0.7434     0.0965     0.6974
A_3     C     0.5538     0.9797     0.439
A_0     C     0.4552     0.3191     0.2966
A_2     C     0.2689     0.2855     0.0995
A_0     C     0.5767     0.8766     0.3062
A_2     C     0.3768     0.9282     0.6483
A_2     C     0.5321     0.6679     0.407
A_0     C     0.0011     0.443     0.529
A_3     C     0.437     0.4423     0.5628
A_2     C     0.138     0.0107     0.9854
A_1     C     0.9983     0.1425     0.9544
A_2     C     0.5041     0.5773     0.7794
A_2     C     0.6013     0.1492     0.1403
A_1     C     0.4291     0.1417     0.687
A_1     C     0.745     0.5646     0.2187
A_1     C     0.8619     0.3684     0.8562
A_0     C     0.9798     0.9164     0.2537
A_0     C     0.2491     0.0576     0.9572
A_3     C     0.5865     0.6788     0.944
A_3     C     0.3142     0.6277     0.6457
A_3     C     0.5799     0.1738     0.1067
A_1     C     0.7709     0.2856     0.7305
A_1     C     0.3798     0.2753     0.0053
A_2     C     0.1848     0.5119     0.3705
A_0     C     0.3053     0.2452     0.7154
A_1     C     0.0354     0.7871     0.1477
A_1     C     0.3826     0.1557     0.6542
A_3     C     0.3453     0.5281     0.4623
A_2     C     0.2372     0.8018     0.3383
A_3     C     0.9566     0.3792     0.3093
A_2     C     0.3801     0.9567     0.5533
A_2     C     0.2399     0.4188     0.1619
A_1     C     0.0048     0.7403     0.0811
A_0     C     0.8302     0.0642     0.7433
A_3     C     0.8291     0.9693     0.017
A_3     C     0.7259     0.5948     0.0342
A_0     C     0.2334     0.4344     0.8451
A_1     C     0.9594     0.8581     0.0874
A_2     C     0.0445     0.314     0.1032
A_3     C     0.5496     0.4659     0.9525
A_0     C     0.3694     0.9449     0.8452
A_0     C     0.0459     0.898     0.8214
A_2     C     0.7241     0.4907     0.2257
A_2     C     0.8307     0.6988     0.7565
A_0     C     0.2592     0.6504     0.0463
A_2     C     0.5638     0.2265     0.835
A_0     C     0.9061     0.0879     0.5513
A_0     C     0.7843     0.8935     0.4786
A_3     C     0.1851     0.499     0.8665
A_2     C     0.2652     0.5411     0.6135
A_2     C     0.6772     0.8327     0.7794
A_0     C     0.0489     0.2796     0.693
A_3     C     0.1797     0.9685     0.4704
A_0     C     0.8789     0.3249     0.9411
A_1     C     0.0809     0.1332     0.9239
A_3     C     0.6256     0.2925     0.3616
A_1     C     0.1216     0.6775     0.9897
A_2     C     0.6297     0.695     0.1894
A_3     C     0.7882     0.3329     0.5868
A_2     C     0.0218     0.2554     0.7213
A_2     C     0.7544     0.0236     0.9702
A_1     C     0.2653     0.0686     0.608
A_1     C     0.6131     0.3009     0.3174
A_0     C     0.4427     0.542     0.7463
A_3     C     0.4448     0.6552     0.7236
A_0     C     0.0543     0.6047     0.5005
A_3     C     0.6068     0.1823     0.3654
A_0     C     0.338     0.3156     0.0688
A_1     C     0.9004     0.1644     0.6759
A_2     C     0.4235     0.3708     0.6106
A_1     C     0.2892     0.3301     0.9193
A_1     C     0.8906     0.1535     0.7545
A_2     C     0.5399     0.467     0.7309
A_2     C     0.9054     0.7675     0.3142
A_0     C     0.0311     0.4686     0.7444
A_3     C     0.6694     0.3871     0.0841
A_3     C     0.8189     0.5138     0.9917
A_2     C     0.8666     0.8505     0.6041
A_0     C     0.7814     0.6946     0.9029
A_0     C     0.8557     0.0905     0.7548
A_2     C     0.0004     0.6256     0.5962
A_3     C     0.4592     0.238     0.613
A_1     C     0.7701     0.3186     0.5517
A_3     C     0.6152     0.4326     0.3845
A_3     C     0.0862     0.3756     0.0005
A_2     C     0.0357     0.4643     0.0921
A_0     C     0.1205     0.9631     0.9584
A_3     C     0.7783     0.9435     0.96
A_2     C     0.8331     0.17     0.2067
A_0     C     0.6037     0.3205     0.9521
A_1     C     0.4789     0.5418     0.3473
A_3     C     0.8374     0.9342     0.2966
A_1     C     0.9368     0.9733     0.1193
A_3     C     0.5995     0.4412     0.3067
A_3     C     0.6413     0.0209     0.6527
A_1     C     0.1619     0.5273     0.1504
A_2     C     0.1022     0.969     0.1495
A_1     C     0.3836     0.1229     0.3572
A_3     C     0.9666     0.1281     0.2353
A_3     C     0.0133     0.0973     0.0333
A_2     C     0.118     0.0532     0.3548
A_3     C     0.1366     0.4312     0.0532
A_2     C     0.9058     0.8787     0.1839
A_2     C     0.1109     0.0455     0.8047
A_0     C     0.7452     0.1417     0.4045
A_3     C     0.9938     0.8095     0.4205
A_0     C     0.6132     0.7386     0.6696
A_0     C     0.3572     0.4867     0.445
A_0     C     0.1273     0.2145     0.2662
A_0     C     0.6459     0.7998     0.1598
A_0     C     0.9785     0.4269     0.9304
A_0     C     0.61     0.5988     0.8016
A_0     C     0.7232     0.254     0.1723
A_0     C     0.6274     0.7237     0.1239
A_0     C     0.1085     0.9517     0.7107
A_0     C     0.8184     0.1072     0.8275
A_0     C     0.7341     0.4704     0.6406
A_0     C     0.211     0.8998     0.9455
A_0     C     0.0141     0.5383     0.7125
A_0     C     0.0787     0.5685     0.5324
A_0     C     0.9342     0.0598     0.7298
A_0     C     0.3384     0.4918     0.4584
A_0     C     0.7372     0.3301     0.3133
A_0     C     0.7263     0.3655     0.9522
A_0     C     0.6985     0.301     0.7685
A_0     C     0.9701     0.3195     0.5183
A_0     C     0.5883     0.0118     0.3681
A_0     C     0.0094     0.0819     0.3812
A_0     C     0.7697     0.2101     0.7331
A_0     C     0.747     0.9646     0.0894
A_0     C     0.3855     0.9828     0.0084
A_0     C     0.7419     0.1344     0.4479
A_0     C     0.022     0.8365     0.0497
A_0     C     0.8886     0.0764     0.1526
A_0     C     0.2697     0.4041     0.1201
A_0     C     0.2351     0.4005     0.453
A_0     C     0.1235     0.308     0.3478
A_0     C     0.6131     0.5887     0.5303
A_0     C     0.4181     0.4733     0.0523
A_0     C     0.2297     0.6961     0.1214
A_0     C     0.3841     0.6792     0.0097
A_0     C     0.0898     0.564     0.9895
A_0     C     0.4505     0.0     0.151
A_0     C     0.9463     0.0807     0.1707
A_0     C     0.078     0.4679     0.9651
A_0     C     0.8121     0.01     0.225
A_0     C     0.7498     0.1585     0.1044
A_0     C     0.3363     0.7237     0.1646
A_0     C     0.2578     0.3475     0.6414
A_0     C     0.4144     0.3598     0.8571
A_0     C     0.285     0.1755     0.4538
A_0     C     0.5998     0.3916     0.2257
A_0     C     0.0718     0.328     0.873
A_0     C     0.5044     0.7761     0.9155
A_0     C     0.4197     0.2203     0.8145
A_0     C     0.602     0.9631     0.0716
A_0     C     0.1327     0.6988     0.1936
A_0     C     0.7286     0.7043     0.5655
A_0     C     0.9058     0.3211     0.3131
A_0     C     0.5313     0.6764     0.1435
A_0     C     0.4641     0.1652     0.8603
A_0     C     0.8312     0.476     0.3773
A_0     C     0.3934     0.7319     0.935
A_0     C     0.0566     0.7541     0.6666
A_0     C     0.9245     0.1326     0.3276
A_0     C     0.8674     0.8581     0.7595
A_0     C     0.7781     0.0881     0.6693
A_0     C     0.5657     0.3031     0.4754
A_0     C     0.1053     0.8704     0.3558
A_0     C     0.681     0.9212     0.7996
A_0     C     0.775     0.3096     0.0065
A_0     C     0.6497     0.9736     0.8448
A_0     C     0.6755     0.4385     0.8722
A_0     C     0.596     0.3946     0.1344
A_0     C     0.7454     0.9862     0.545
A_0     C     0.506     0.9322     0.353
A_0     C     0.1024     0.8377     0.1084
A_0     C     0.5078     0.6616     0.5566
A_0     C     0.0679     0.3559     0.1802
A_0     C     0.7535     0.8247     0.6478
A_0     C     0.8912     0.8677     0.9866
A_0     C     0.1228     0.9354     0.9184
A_0     C     0.9587     0.6412     0.2855
A_0     C     0.4376     0.6275     0.2048
A_0     C     0.2498     0.772     0.4595
A_0     C     0.0068     0.2849     0.7551
A_0     C     0.9088     0.5016     0.4748
A_0     C     0.7107     0.532     0.152
A_0     C     0.647     0.1474     0.156
A_0     C     0.9469     0.7153     0.4887
A_0     C     0.1782     0.3091     0.2496
A_0     C     0.4377     0.1809     0.4228
A_0     C     0.6483     0.797     0.6111
A_0     C     0.3446     0.68     0.6754
A_0     C     0.0569     0.0474     0.0055
A_0     C     0.6262     0.1968     0.2398
A_0     C     0.3446     0.0856     0.9628
A_0     C     0.8065     0.5832     0.7427
A_0     C     0.6763     0.3695     0.7765
A_0     C     0.8532     0.9937     0.4973
A_0     C     0.6885     0.4261     0.7322
A_0     C     0.1499     0.9449     0.5785
A_0     C     0.4849     0.4499     0.8484
A_0     C     0.929     0.1206     0.2025
A_0     C     0.3702     0.1792     0.3381
A_0     C     0.2728     0.8511     0.8163
A_0     C     0.5116     0.5292     0.659
A_0     C     0.8064     0.7517     0.1023
A_0     C     0.3973     0.3891     0.7239
A_0     C     0.8606     0.0784     0.333
A_0     C     0.9263     0.5674     0.1832
A_0     C     0.4846     0.3791     0.3581
A_0     C     0.2839     0.7519     0.567
A_0     C     0.1651     0.4578     0.4619
A_0     C     0.4895     0.3903     0.0082
A_0     C     0.9715     0.6897     0.3222
A_0     C     0.4589     0.6658     0.0008
A_0     C     0.6238     0.5     0.4905
A_0     C     0.6211     0.7009     0.5769
A_0     C     0.8167     0.672     0.4624
A_0     C     0.3076     0.0444     0.754
A_0     C     0.059     0.4577     0.7716
A_0     C     0.647     0.8761     0.5447
A_0     C     0.9653     0.618     0.0493
A_0     C     0.7517     0.386     0.0998
A_0     C     0.3413     0.6403     0.7309
A_0     C     0.472     0.1341     0.1901
A_0     C     0.1065     0.9208     0.0302
A_0     C     0.4737     0.5954     0.3368
A_0     C     0.5526     0.2594     0.6758
