MAT-57

loop_
_symmetry_equiv_pos_as_xyz
  x,y,z
_cell_length_a          29.0221
_cell_length_b          43.3687
_cell_length_c          32.969
_cell_angle_alpha       90.0000
_cell_angle_beta        90.0000
_cell_angle_gamma       90.0000
loop_
_atom_site_label
_atom_site_type_symbol
_atom_site_fract_x
_atom_site_fract_y
_atom_site_fract_z
A_1     C     0.4899     0.2957     0.7885
A_3     C     0.2447     0.6976     0.999
A_1     C     0.4794     0.2008     0.6613
A_2     C     0.5029     0.7812     0.5526
A_1     C     0.9746     0.5765     0.7275
A_2     C     0.6458     0.2285     0.1669
A_0     C     0.7063     0.9533     0.2024
A_0     C     0.3018     0.2696     0.3449
A_0     C     0.9404     0.598     0.4828
A_3     C     0.0291     0.064     0.5144
A_1     C     0.0889     0.8847     0.9468
A_2     C     0.8022     0.0433     0.7662
A_1     C     0.2461     0.1239     0.0995
A_1     C     0.7207     0.5984     0.0463
A_1     C     0.709     0.7827     0.2831
A_3     C     0.8052     0.6595     0.0839
A_1     C     0.8676     0.7575     0.5143
A_0     C     0.3508     0.5442     0.6438
A_2     C     0.6462     0.7878     0.6697
A_1     C     0.2518     0.5408     0.3387
A_2     C     0.2164     0.0321     0.4633
A_3     C     0.2445     0.2691     0.5903
A_1     C     0.7097     0.9511     0.7465
A_3     C     0.2437     0.8255     0.2933
A_2     C     0.5426     0.7012     0.0969
A_2     C     0.0986     0.8672     0.0537
A_2     C     0.5811     0.7578     0.4246
A_0     C     0.5142     0.4869     0.4285
A_0     C     0.9185     0.7672     0.6605
A_2     C     0.5664     0.0612     0.7313
A_1     C     0.1508     0.9531     0.4237
A_0     C     0.3415     0.1081     0.5423
A_3     C     0.8897     0.8761     0.7759
A_1     C     0.5239     0.1625     0.1837
A_3     C     0.639     0.1457     0.2271
A_1     C     0.6181     0.5997     0.2898
A_2     C     0.3489     0.0257     0.486
A_3     C     0.2569     0.2803     0.7758
A_1     C     0.0216     0.082     0.0939
A_0     C     0.0932     0.9591     0.9237
A_0     C     0.2879     0.7794     0.7745
A_1     C     0.7533     0.8734     0.9925
A_1     C     0.17     0.0831     0.8382
A_0     C     0.2758     0.6893     0.3715
A_0     C     0.9782     0.1662     0.0966
A_2     C     0.6447     0.7923     0.7722
A_3     C     0.8758     0.3154     0.5436
A_3     C     0.2757     0.0727     0.1755
A_2     C     0.8166     0.1612     0.7947
A_1     C     0.757     0.5817     0.8208
A_3     C     0.3576     0.0842     0.9287
A_1     C     0.6918     0.0065     0.1079
A_2     C     0.8371     0.6228     0.2033
A_1     C     0.7405     0.1701     0.3569
A_0     C     0.9656     0.6805     0.6602
A_1     C     0.9038     0.746     0.0876
A_3     C     0.6274     0.1618     0.137
A_0     C     0.6019     0.5543     0.5585
A_0     C     0.4682     0.7942     0.2597
A_3     C     0.6389     0.1306     0.5105
A_0     C     0.3905     0.7897     0.2276
A_2     C     0.615     0.5004     0.7713
A_3     C     0.4729     0.3826     0.9027
A_1     C     0.7294     0.5198     0.7193
A_3     C     0.5784     0.0563     0.9769
A_3     C     0.1257     0.5069     0.8691
A_2     C     0.9788     0.7949     0.7789
A_0     C     0.7647     0.4805     0.7142
A_3     C     0.9409     0.6982     0.3437
A_1     C     0.5573     0.0716     0.9217
A_0     C     0.9309     0.5431     0.5605
A_2     C     0.5698     0.5395     0.2946
A_2     C     0.81     0.9895     0.339
A_1     C     0.7003     0.2364     0.7546
A_3     C     0.4489     0.9293     0.6197
A_0     C     0.9893     0.4119     0.9497
A_2     C     0.6762     0.4408     0.2192
A_2     C     0.2268     0.8887     0.9314
A_3     C     0.151     0.711     0.3108
A_3     C     0.1627     0.4712     0.3654
A_3     C     0.5748     0.4991     0.8564
A_0     C     0.901     0.5099     0.9244
A_0     C     0.5108     0.6883     0.4745
A_3     C     0.3613     0.9829     0.6241
A_1     C     0.4591     0.7874     0.9855
A_0     C     0.3599     0.0769     0.8375
A_1     C     0.1107     0.8172     0.7412
A_1     C     0.788     0.0224     0.5124
A_2     C     0.9773     0.2462     0.709
A_1     C     0.0883     0.1224     0.7343
A_2     C     0.2215     0.2856     0.0676
A_1     C     0.018     0.8915     0.9015
A_2     C     0.0919     0.4083     0.6695
A_3     C     0.8959     0.0421     0.6489
A_3     C     0.1065     0.092     0.5526
A_3     C     0.5322     0.5957     0.7903
A_2     C     0.4527     0.1303     0.8706
A_2     C     0.5366     0.566     0.1191
A_3     C     0.0197     0.6794     0.8312
A_3     C     0.0795     0.9238     0.9009
A_2     C     0.7329     0.4693     0.8658
A_2     C     0.5129     0.8302     0.3314
A_1     C     0.2078     0.5696     0.336
A_2     C     0.6627     0.7019     0.8698
A_1     C     0.4386     0.5076     0.7472
A_0     C     0.0147     0.6076     0.6554
A_3     C     0.7365     0.0829     0.6757
A_3     C     0.2067     0.4831     0.6773
A_0     C     0.6275     0.81     0.2052
A_2     C     0.4858     0.7242     0.6126
A_3     C     0.7563     0.5018     0.3979
A_3     C     0.259     0.8635     0.319
A_3     C     0.9797     0.6316     0.9438
A_1     C     0.4568     0.3873     0.1347
A_1     C     0.3939     0.9505     0.0986
A_3     C     0.0407     0.2509     0.2251
A_0     C     0.6603     0.1127     0.3265
A_3     C     0.4769     0.4248     0.0513
A_1     C     0.4124     0.2154     0.3657
A_3     C     0.724     0.0083     0.5177
A_1     C     0.3357     0.4741     0.4932
A_2     C     0.0827     0.8682     0.1074
A_3     C     0.9334     0.1998     0.1896
A_3     C     0.8613     0.6982     0.3159
A_2     C     0.1969     0.9139     0.2085
A_0     C     0.1568     0.8599     0.5666
A_3     C     0.219     0.9791     0.0911
A_1     C     0.9719     0.2719     0.0202
A_3     C     0.402     0.8406     0.0487
A_1     C     0.1521     0.7     0.9744
A_2     C     0.4031     0.1186     0.1187
A_2     C     0.435     0.1799     0.4707
A_2     C     0.2985     0.7815     0.7242
A_0     C     0.3759     0.9689     0.2833
A_3     C     0.645     0.5683     0.699
A_2     C     0.9264     0.1394     0.1153
A_1     C     0.7842     0.6314     0.0469
A_1     C     0.4706     0.4906     0.7561
A_0     C     0.8251     0.9416     0.8517
A_1     C     0.8248     0.7345     0.9778
A_3     C     0.3214     0.8089     0.1525
A_1     C     0.3955     0.0406     0.9222
A_0     C     0.8197     0.3147     0.4816
A_1     C     0.8632     0.042     0.59
A_3     C     0.1316     0.9821     0.3763
A_3     C     0.4575     0.6261     0.4596
A_3     C     0.7441     0.6528     0.1929
A_3     C     0.6341     0.5445     0.5028
A_1     C     0.6263     0.2749     0.5128
A_2     C     0.6647     0.4307     0.1632
A_1     C     0.5099     0.066     0.3538
A_3     C     0.8363     0.9519     0.8167
A_0     C     0.1137     0.3373     0.0596
A_1     C     0.426     0.4496     0.6642
A_3     C     0.0776     0.4843     0.7598
A_3     C     0.8216     0.7821     0.3278
A_2     C     0.9441     0.9636     0.1887
A_0     C     0.6632     0.1811     0.0577
A_1     C     0.9806     0.5622     0.8965
A_0     C     0.7655     0.3022     0.68
A_3     C     0.543     0.6058     0.0812
A_0     C     0.4989     0.2045     0.1296
A_0     C     0.1402     0.2576     0.1535
A_3     C     0.9096     0.2659     0.1819
A_3     C     0.6076     0.3306     0.0683
A_2     C     0.6091     0.081     0.581
A_2     C     0.6835     0.8569     0.7337
A_1     C     0.7917     0.2412     0.0707
A_1     C     0.9358     0.9398     0.2196
A_0     C     0.7032     0.8337     0.8931
A_0     C     0.4119     0.4696     0.2834
A_2     C     0.0051     0.2355     0.5315
A_2     C     0.078     0.1172     0.6484
A_3     C     0.745     0.3527     0.9293
A_2     C     0.4595     0.4443     0.7144
A_0     C     0.9703     0.0195     0.237
A_1     C     0.076     0.149     0.4162
A_0     C     0.5301     0.4467     0.7257
A_1     C     0.0235     0.5736     0.3027
A_0     C     0.7506     0.5909     0.62
A_1     C     0.1616     0.3839     0.7769
A_2     C     0.2042     0.1162     0.106
A_3     C     0.392     0.1772     0.4336
A_1     C     0.6048     0.9146     0.8595
A_2     C     0.1617     0.6489     0.9581
A_2     C     0.5143     0.9597     0.1788
A_0     C     0.5041     0.247     0.3897
A_2     C     0.5341     0.9328     0.7124
A_0     C     0.484     0.3021     0.5799
A_0     C     0.2441     0.9347     0.9574
A_3     C     0.6085     0.9213     0.7352
A_0     C     0.7912     0.3942     0.4386
A_3     C     0.2415     0.9256     0.1377
A_2     C     0.33     0.6047     0.5159
A_2     C     0.5424     0.1798     0.1415
A_3     C     0.3991     0.217     0.7376
A_2     C     0.573     0.1247     0.6281
A_3     C     0.9748     0.5248     0.1649
A_0     C     0.584     0.7835     0.2118
A_3     C     0.8796     0.9573     0.4912
A_2     C     0.763     0.7749     0.7704
A_0     C     0.9722     0.2149     0.9612
A_0     C     0.9743     0.029     0.5662
A_2     C     0.5447     0.288     0.0879
A_1     C     0.2089     0.4174     0.0836
A_3     C     0.0931     0.1692     0.1999
A_1     C     0.4424     0.8609     0.5691
A_1     C     0.6984     0.6632     0.0522
A_3     C     0.2136     0.4671     0.9077
A_2     C     0.1472     0.7839     0.3893
A_0     C     0.1525     0.7696     0.5176
A_3     C     0.7133     0.0901     0.7743
A_2     C     0.4766     0.2126     0.8249
A_0     C     0.0886     0.186     0.7586
A_2     C     0.0293     0.0762     0.6708
A_3     C     0.1385     0.6572     0.7556
A_0     C     0.3849     0.6092     0.126
A_1     C     0.9345     0.2534     0.7358
A_3     C     0.4678     0.205     0.9579
A_3     C     0.5612     0.159     0.3676
A_2     C     0.6526     0.3098     0.1072
A_3     C     0.804     0.2565     0.6171
A_3     C     0.1872     0.1336     0.7324
A_3     C     0.6392     0.1906     0.8735
A_3     C     0.2729     0.6025     0.5278
A_3     C     0.3896     0.0879     0.6546
A_1     C     0.1738     0.5499     0.4381
A_1     C     0.6379     0.0084     0.7594
A_3     C     0.4115     0.1403     0.9803
A_1     C     0.516     0.2453     0.0346
A_1     C     0.227     0.3462     0.9323
A_3     C     0.7483     0.5262     0.5672
A_0     C     0.421     0.1545     0.235
A_3     C     0.0012     0.9154     0.7534
A_3     C     0.3988     0.6426     0.3303
A_3     C     0.2161     0.7904     0.4253
A_2     C     0.9626     0.1496     0.1416
A_0     C     0.787     0.976     0.0878
A_0     C     0.2587     0.0631     0.9854
A_3     C     0.0266     0.3522     0.0909
A_3     C     0.5667     0.9342     0.7585
A_2     C     0.7364     0.8223     0.9474
A_3     C     0.0401     0.7771     0.2277
A_0     C     0.7939     0.7907     0.2237
A_1     C     0.5123     0.2354     0.4392
A_0     C     0.643     0.7004     0.459
A_1     C     0.0701     0.4132     0.1515
A_0     C     0.1503     0.7836     0.675
A_3     C     0.0221     0.8349     0.4284
A_3     C     0.6024     0.2233     0.0213
A_1     C     0.8509     0.9528     0.1989
A_0     C     0.8345     0.4539     0.3412
A_3     C     0.3701     0.615     0.7041
A_1     C     0.8791     0.0489     0.4357
A_1     C     0.3     0.9887     0.8104
A_1     C     0.8842     0.0399     0.1545
