MAT-88

loop_
_symmetry_equiv_pos_as_xyz
  x,y,z
_cell_length_a          31.1168
_cell_length_b          23.7787
_cell_length_c          39.5229
_cell_angle_alpha       90.0000
_cell_angle_beta        90.0000
_cell_angle_gamma       90.0000
loop_
_atom_site_label
_atom_site_type_symbol
_atom_site_fract_x
_atom_site_fract_y
_atom_site_fract_z
A_3     C     0.342     0.1171     0.0838
A_0     C     0.6827     0.1656     0.4782
A_3     C     0.2563     0.2115     0.792
A_0     C     0.0501     0.8736     0.8415
A_1     C     0.0406     0.9763     0.066
A_1     C     0.7788     0.9497     0.5972
A_3     C     0.295     0.3958     0.4965
A_3     C     0.4946     0.3985     0.1872
A_3     C     0.1532     0.8888     0.3799
A_3     C     0.9575     0.8446     0.1122
A_3     C     0.2184     0.5424     0.7951
A_3     C     0.2594     0.5449     0.8409
A_3     C     0.7367     0.4032     0.6424
A_3     C     0.663     0.5711     0.3232
A_3     C     0.1491     0.0114     0.0182
A_3     C     0.9515     0.6055     0.5307
A_3     C     0.8011     0.2188     0.7297
A_3     C     0.6717     0.8064     0.8304
A_3     C     0.1636     0.7591     0.9114
A_3     C     0.7494     0.4706     0.8808
A_3     C     0.0513     0.7285     0.2735
A_3     C     0.7731     0.271     0.7289
A_3     C     0.7895     0.2261     0.2614
A_3     C     0.2693     0.8458     0.3806
A_3     C     0.9564     0.5836     0.7094
A_3     C     0.9672     0.9834     0.9263
A_3     C     0.9604     0.4882     0.451
A_3     C     0.5273     0.7436     0.6587
A_3     C     0.3672     0.372     0.6652
A_3     C     0.8334     0.8251     0.2281
A_3     C     0.8075     0.848     0.9603
A_3     C     0.5807     0.1251     0.4797
A_3     C     0.5832     0.2401     0.6827
A_3     C     0.0478     0.766     0.1188
A_3     C     0.3815     0.5818     0.8295
A_3     C     0.9713     0.8122     0.2253
A_3     C     0.4073     0.1341     0.4534
A_3     C     0.73     0.5575     0.1986
A_3     C     0.8579     0.7848     0.4843
A_3     C     0.6681     0.0722     0.3308
A_3     C     0.3077     0.1848     0.8868
A_3     C     0.5592     0.4804     0.335
A_3     C     0.7109     0.8036     0.5204
A_3     C     0.8026     0.397     0.6838
A_3     C     0.7672     0.7383     0.9146
A_3     C     0.5159     0.2639     0.8071
A_3     C     0.5263     0.8462     0.3389
A_3     C     0.4411     0.5461     0.4025
A_3     C     0.4376     0.0404     0.4886
A_3     C     0.2838     0.0354     0.5106
A_3     C     0.2446     0.8351     0.0893
A_3     C     0.1563     0.5701     0.3107
A_3     C     0.2954     0.2945     0.0006
A_3     C     0.7207     0.0852     0.6607
A_3     C     0.4771     0.6936     0.5204
A_3     C     0.2365     0.9659     0.9975
A_3     C     0.5743     0.5114     0.0512
A_3     C     0.4977     0.8062     0.2924
A_3     C     0.8834     0.7033     0.0545
A_3     C     0.1419     0.4884     0.5259
A_3     C     0.782     0.3528     0.0998
A_3     C     0.2711     0.4566     0.2664
A_3     C     0.1106     0.8135     0.9176
A_3     C     0.674     0.4816     0.0323
A_3     C     0.8399     0.9587     0.4729
A_3     C     0.5676     0.2017     0.3981
A_3     C     0.4262     0.0024     0.3743
A_3     C     0.0574     0.2577     0.5564
A_3     C     0.0137     0.0146     0.8546
A_3     C     0.4429     0.9409     0.3481
A_3     C     0.5973     0.3341     0.2185
A_3     C     0.2018     0.9714     0.3813
A_3     C     0.4676     0.7061     0.2413
A_3     C     0.4951     0.2869     0.7401
A_3     C     0.1487     0.9624     0.3812
A_3     C     0.0771     0.9304     0.7317
A_3     C     0.1579     0.3731     0.5093
A_3     C     0.3375     0.8246     0.8295
A_3     C     0.7207     0.2706     0.1277
A_3     C     0.7751     0.9513     0.0322
A_3     C     0.0979     0.1018     0.6177
A_3     C     0.9287     0.9663     0.1851
A_3     C     0.9814     0.8531     0.5517
A_3     C     0.8384     0.3575     0.2467
A_3     C     0.6645     0.1625     0.9607
A_3     C     0.7034     0.5841     0.7724
A_3     C     0.0079     0.9969     0.4645
A_3     C     0.9038     0.7931     0.6321
A_3     C     0.3548     0.8195     0.7114
A_3     C     0.5031     0.3964     0.2791
A_3     C     0.421     0.9617     0.6915
A_3     C     0.1037     0.7564     0.5129
A_3     C     0.4328     0.2156     0.8319
A_3     C     0.963     0.4504     0.3759
A_3     C     0.6071     0.462     0.7258
