MAT-50

loop_
_symmetry_equiv_pos_as_xyz
  x,y,z
_cell_length_a          36.7038
_cell_length_b          45.4707
_cell_length_c          33.4175
_cell_angle_alpha       90.0000
_cell_angle_beta        90.0000
_cell_angle_gamma       90.0000
loop_
_atom_site_label
_atom_site_type_symbol
_atom_site_fract_x
_atom_site_fract_y
_atom_site_fract_z
A_1     C     0.6766     0.354     0.0355
A_3     C     0.8054     0.4223     0.5286
A_0     C     0.9133     0.893     0.7591
A_2     C     0.2192     0.3248     0.4943
A_0     C     0.3885     0.3421     0.0516
A_3     C     0.2355     0.9346     0.6692
A_2     C     0.6031     0.4565     0.116
A_3     C     0.5162     0.9013     0.7603
A_3     C     0.9413     0.919     0.388
A_2     C     0.8689     0.6259     0.5028
A_3     C     0.8822     0.7261     0.0205
A_2     C     0.6658     0.8824     0.8448
A_3     C     0.6656     0.5954     0.9907
A_2     C     0.5518     0.818     0.7609
A_3     C     0.4296     0.7413     0.0363
A_0     C     0.6779     0.0292     0.8505
A_3     C     0.966     0.3075     0.6114
A_3     C     0.6143     0.2142     0.2807
A_3     C     0.3641     0.2808     0.8299
A_1     C     0.7941     0.552     0.6894
A_1     C     0.0039     0.2721     0.506
A_1     C     0.0382     0.6941     0.1266
A_2     C     0.4989     0.9588     0.0021
A_2     C     0.57     0.7842     0.5848
A_1     C     0.5761     0.3952     0.3637
A_3     C     0.3409     0.2318     0.6311
A_3     C     0.3656     0.5266     0.6589
A_2     C     0.4008     0.2768     0.5021
A_1     C     0.1439     0.2167     0.1613
A_3     C     0.2084     0.895     0.3521
A_1     C     0.3384     0.417     0.8256
A_0     C     0.7075     0.5661     0.0917
A_2     C     0.7784     0.5613     0.3089
A_3     C     0.032     0.4946     0.0563
A_3     C     0.5759     0.6727     0.8951
A_3     C     0.5486     0.7151     0.1133
A_3     C     0.2454     0.8458     0.8949
A_2     C     0.5734     0.8859     0.5958
A_3     C     0.8509     0.7145     0.1552
A_3     C     0.0699     0.8224     0.7636
A_1     C     0.7603     0.1391     0.623
A_2     C     0.6417     0.0821     0.2543
A_2     C     0.1235     0.9533     0.9285
A_0     C     0.83     0.3017     0.4234
A_3     C     0.7492     0.6122     0.3584
A_2     C     0.2237     0.0014     0.8635
A_0     C     0.764     0.1933     0.775
A_2     C     0.5885     0.4141     0.919
A_3     C     0.4487     0.6811     0.3839
A_3     C     0.8089     0.4048     0.1557
A_2     C     0.0924     0.4598     0.1986
A_2     C     0.1745     0.0583     0.35
A_2     C     0.8542     0.5937     0.0629
A_3     C     0.5644     0.0501     0.89
A_0     C     0.3415     0.0456     0.5901
A_1     C     0.4159     0.0657     0.3805
A_1     C     0.8158     0.0638     0.56
A_1     C     0.6342     0.5432     0.0825
A_3     C     0.0047     0.821     0.0757
A_2     C     0.3241     0.4498     0.4374
A_1     C     0.8827     0.2805     0.7705
A_3     C     0.1098     0.3074     0.681
A_2     C     0.5108     0.9565     0.8559
A_0     C     0.247     0.0439     0.6057
A_0     C     0.2735     0.2318     0.2392
A_3     C     0.5006     0.0396     0.9073
A_0     C     0.1826     0.5747     0.2301
A_0     C     0.6648     0.159     0.107
A_0     C     0.5971     0.4703     0.5491
A_0     C     0.3175     0.3348     0.7616
A_3     C     0.5314     0.0038     0.8456
A_2     C     0.2271     0.3034     0.6694
A_1     C     0.0995     0.0367     0.4835
A_3     C     0.3292     0.328     0.4596
A_3     C     0.4025     0.4699     0.0119
A_1     C     0.3262     0.6822     0.7759
A_3     C     0.7601     0.0961     0.1684
A_0     C     0.9444     0.5031     0.1575
A_1     C     0.3499     0.9263     0.4725
A_1     C     0.8102     0.8419     0.8203
A_2     C     0.7742     0.8828     0.6495
A_1     C     0.8872     0.9848     0.9942
A_2     C     0.4284     0.2269     0.2036
A_2     C     0.6674     0.515     0.9027
A_0     C     0.2599     0.7657     0.9832
A_1     C     0.6178     0.811     0.6069
A_2     C     0.3903     0.8487     0.4679
A_3     C     0.0824     0.0669     0.2508
A_3     C     0.5826     0.4823     0.1895
A_1     C     0.9877     0.7596     0.916
A_2     C     0.9438     0.8106     0.4238
A_1     C     0.2425     0.0005     0.7203
A_2     C     0.4724     0.5925     0.8714
A_2     C     0.0423     0.8784     0.4686
A_2     C     0.6903     0.0358     0.3284
A_3     C     0.2265     0.4829     0.0325
A_2     C     0.49     0.0926     0.0996
A_1     C     0.6044     0.3839     0.0369
A_1     C     0.9318     0.8003     0.5664
A_1     C     0.8282     0.0073     0.2764
A_1     C     0.4859     0.8578     0.7612
A_3     C     0.9449     0.7572     0.0104
A_3     C     0.7457     0.6148     0.584
A_3     C     0.03     0.0999     0.8519
A_0     C     0.9796     0.4999     0.1091
A_1     C     0.0611     0.9654     0.4669
A_3     C     0.5981     0.3616     0.7993
A_3     C     0.8231     0.848     0.8979
A_0     C     0.8202     0.3109     0.3536
A_0     C     0.272     0.9427     0.6067
A_1     C     0.013     0.2058     0.9571
A_2     C     0.3368     0.3829     0.2882
A_0     C     0.3725     0.2365     0.4064
A_1     C     0.1137     0.7993     0.761
A_1     C     0.279     0.2095     0.415
A_1     C     0.8699     0.3412     0.484
A_1     C     0.1912     0.8584     0.9373
A_2     C     0.614     0.1014     0.8914
A_3     C     0.8424     0.805     0.5228
A_3     C     0.0517     0.712     0.7743
A_3     C     0.478     0.3915     0.5342
A_2     C     0.1781     0.2916     0.2145
A_0     C     0.0547     0.98     0.0621
A_3     C     0.613     0.0419     0.1503
A_2     C     0.9893     0.6512     0.6327
A_0     C     0.4273     0.8415     0.5697
A_1     C     0.1256     0.0098     0.2848
A_2     C     0.9641     0.5032     0.9183
A_1     C     0.6851     0.3553     0.3579
A_1     C     0.0956     0.7325     0.6169
A_3     C     0.2822     0.344     0.3763
A_0     C     0.9363     0.8379     0.4546
A_3     C     0.6785     0.8401     0.9213
A_0     C     0.995     0.91     0.0273
A_2     C     0.6109     0.4808     0.3043
A_1     C     0.1396     0.8364     0.4748
A_1     C     0.4468     0.1145     0.0031
A_0     C     0.0647     0.4719     0.1905
A_2     C     0.9562     0.9675     0.8493
A_2     C     0.2461     0.1343     0.1455
A_0     C     0.1604     0.286     0.5296
A_0     C     0.5844     0.5116     0.9266
A_0     C     0.9135     0.1846     0.1464
A_2     C     0.7268     0.8927     0.5763
A_2     C     0.4497     0.2552     0.5193
A_2     C     0.6517     0.2603     0.9247
A_2     C     0.2142     0.9133     0.8832
A_1     C     0.0243     0.9847     0.7781
A_3     C     0.0798     0.283     0.8742
A_2     C     0.536     0.1536     0.6627
A_0     C     0.1819     0.9038     0.5209
A_3     C     0.8546     0.4592     0.868
A_1     C     0.62     0.9372     0.5455
A_0     C     0.9131     0.2348     0.9867
A_3     C     0.0438     0.805     0.6031
A_2     C     0.8492     0.8504     0.1202
A_3     C     0.6082     0.7148     0.5633
A_2     C     0.9881     0.2802     0.5031
A_0     C     0.0802     0.7352     0.8421
A_1     C     0.5243     0.7377     0.2102
A_0     C     0.5965     0.6674     0.9824
A_2     C     0.0629     0.5442     0.1491
A_3     C     0.2353     0.365     0.4487
A_3     C     0.871     0.7621     0.5581
A_0     C     0.7621     0.1945     0.7511
A_0     C     0.5736     0.2257     0.9285
A_3     C     0.5763     0.2675     0.6767
A_0     C     0.581     0.6152     0.5202
A_2     C     0.7001     0.746     0.2752
A_0     C     0.2257     0.7999     0.0044
A_2     C     0.9624     0.6415     0.8216
A_2     C     0.072     0.8252     0.0843
A_0     C     0.4772     0.9421     0.2986
A_1     C     0.5979     0.1409     0.2603
A_0     C     0.7177     0.5729     0.411
A_0     C     0.1763     0.3692     0.1183
A_1     C     0.2903     0.7044     0.6024
A_3     C     0.6064     0.6405     0.4711
A_0     C     0.4876     0.4627     0.6212
A_1     C     0.8277     0.8965     0.7959
A_0     C     0.5345     0.915     0.7902
A_0     C     0.1737     0.0145     0.2975
A_2     C     0.7783     0.5472     0.2648
A_1     C     0.7006     0.9686     0.9865
A_1     C     0.3073     0.9238     0.1831
A_1     C     0.3256     0.2125     0.9681
A_3     C     0.841     0.4955     0.7941
A_0     C     0.8774     0.3046     0.8647
A_2     C     0.2046     0.3681     0.6873
A_1     C     0.0676     0.8581     0.2663
A_0     C     0.6462     0.3514     0.7887
A_2     C     0.6208     0.6212     0.6976
A_3     C     0.8086     0.3534     0.515
A_3     C     0.451     0.1793     0.9459
A_0     C     0.8606     0.1121     0.317
A_0     C     0.0677     0.3785     0.6897
A_2     C     0.7014     0.1546     0.4368
A_1     C     0.0672     0.4306     0.6216
A_0     C     0.1946     0.7421     0.9075
A_1     C     0.0856     0.5115     0.933
A_3     C     0.6218     0.4492     0.3219
A_0     C     0.2625     0.9262     0.0301
A_0     C     0.983     0.432     0.6316
A_2     C     0.3276     0.0327     0.7509
A_1     C     0.8615     0.7002     0.9397
A_3     C     0.4562     0.0193     0.2557
A_2     C     0.4528     0.8816     0.4051
A_1     C     0.2756     0.0113     0.4594
A_3     C     0.3237     0.4104     0.678
A_0     C     0.0974     0.6684     0.4397
A_3     C     0.6435     0.906     0.8035
A_2     C     0.6027     0.8262     0.1357
A_2     C     0.0534     0.1872     0.4126
A_2     C     0.2509     0.8539     0.1636
A_1     C     0.4046     0.5209     0.022
A_3     C     0.6906     0.6283     0.2732
A_1     C     0.138     0.4343     0.8802
A_2     C     0.3715     0.8371     0.8959
A_3     C     0.2531     0.4255     0.9177
A_3     C     0.3586     0.2772     0.0149
A_1     C     0.4845     0.5672     0.087
A_2     C     0.9698     0.908     0.1897
A_1     C     0.9562     0.2329     0.7634
A_0     C     0.52     0.2697     0.0476
A_2     C     0.2291     0.4801     0.3441
A_1     C     0.5863     0.5972     0.946
A_1     C     0.0281     0.9878     0.1741
A_3     C     0.2143     0.94     0.4536
A_0     C     0.8748     0.5629     0.8479
A_3     C     0.3911     0.7492     0.8771
A_2     C     0.9727     0.0932     0.0305
A_0     C     0.0166     0.245     0.512
A_3     C     0.6966     0.3428     0.4374
A_0     C     0.6555     0.3887     0.4182
A_2     C     0.0408     0.6319     0.435
A_3     C     0.4646     0.85     0.2088
A_0     C     0.1466     0.8491     0.027
A_1     C     0.5922     0.9473     0.9761
A_2     C     0.5029     0.9595     0.3892
A_1     C     0.376     0.1366     0.9734
A_2     C     0.0437     0.7103     0.631
A_1     C     0.1743     0.5715     0.9352
A_2     C     0.3166     0.7148     0.4496
A_0     C     0.1974     0.8072     0.7346
A_2     C     0.9716     0.0996     0.4816
A_0     C     0.0457     0.6822     0.7152
A_3     C     0.793     0.6761     0.6071
A_0     C     0.9216     0.5762     0.9672
A_1     C     0.0226     0.3255     0.5478
A_0     C     0.0601     0.2699     0.0357
A_1     C     0.9686     0.798     0.4871
A_1     C     0.1732     0.4611     0.606
A_3     C     0.7029     0.9718     0.8707
A_0     C     0.0417     0.0847     0.2809
A_1     C     0.9963     0.5976     0.4089
A_3     C     0.4908     0.1135     0.2609
A_2     C     0.9767     0.0421     0.0415
A_2     C     0.3976     0.2384     0.6774
A_1     C     0.9106     0.9417     0.4311
A_2     C     0.1565     0.3909     0.0357
A_3     C     0.4222     0.1407     0.5502
A_0     C     0.6995     0.5119     0.4092
A_2     C     0.3962     0.5741     0.8348
A_2     C     0.6965     0.0028     0.1776
A_1     C     0.1272     0.7309     0.3941
A_3     C     0.1297     0.3143     0.4708
A_2     C     0.6162     0.9442     0.0275
A_3     C     0.6349     0.4595     0.9399
A_0     C     0.8237     0.6337     0.5094
A_3     C     0.77     0.681     0.4067
A_3     C     0.3131     0.4652     0.8503
A_0     C     0.8625     0.3814     0.4593
A_0     C     0.7629     0.2653     0.4357
A_2     C     0.1375     0.8741     0.8231
A_3     C     0.95     0.9219     0.1825
A_3     C     0.8977     0.5687     0.3635
A_2     C     0.6128     0.9144     0.9471
A_2     C     0.0653     0.9891     0.8612
A_0     C     0.9017     0.4092     0.4219
A_2     C     0.1208     0.6756     0.2506
A_2     C     0.5379     0.7243     0.5463
A_1     C     0.4114     0.3375     0.8284
A_1     C     0.0144     0.4132     0.6915
A_3     C     0.618     0.8635     0.9251
A_0     C     0.26     0.4501     0.6771
A_0     C     0.5383     0.7981     0.6495
A_3     C     0.1841     0.2405     0.8336
A_1     C     0.5506     0.882     0.8563
A_3     C     0.2376     0.6246     0.0989
A_2     C     0.0919     0.9363     0.4214
A_2     C     0.8603     0.0171     0.3424
A_3     C     0.8672     0.1222     0.1879
A_0     C     0.764     0.6504     0.6278
A_3     C     0.1147     0.733     0.8646
A_3     C     0.3975     0.3951     0.4537
A_0     C     0.9481     0.5771     0.0973
A_0     C     0.2803     0.1007     0.8895
A_3     C     0.5283     0.4733     0.9685
A_0     C     0.8664     0.1037     0.2492
A_2     C     0.0533     0.7334     0.4565
A_3     C     0.1327     0.2237     0.9173
A_2     C     0.5279     0.3359     0.3521
A_2     C     0.1736     0.7494     0.9834
A_1     C     0.7424     0.1107     0.3558
A_3     C     0.0806     0.0095     0.3214
A_2     C     0.3459     0.3201     0.8881
A_2     C     0.3287     0.562     0.0786
A_2     C     0.1858     0.4057     0.4092
A_2     C     0.4274     0.8536     0.4301
A_2     C     0.7271     0.6196     0.2157
A_2     C     0.2244     0.1888     0.6811
A_2     C     0.1946     0.9438     0.5587
A_2     C     0.1362     0.1631     0.9392
A_2     C     0.2893     0.4775     0.6536
A_2     C     0.155     0.398     0.8601
A_2     C     0.1105     0.8248     0.5958
A_2     C     0.8884     0.8139     0.5825
A_2     C     0.0829     0.8778     0.133
A_2     C     0.3356     0.7236     0.4579
A_2     C     0.058     0.2782     0.7019
A_2     C     0.1082     0.367     0.7802
A_2     C     0.1179     0.3636     0.2159
A_2     C     0.7178     0.0253     0.3919
A_2     C     0.5239     0.7893     0.6416
A_2     C     0.2538     0.5442     0.1117
A_2     C     0.8801     0.2163     0.1568
A_2     C     0.1689     0.9208     0.7039
A_2     C     0.5003     0.3247     0.3151
