MAT-13

loop_
_symmetry_equiv_pos_as_xyz
  x,y,z
_cell_length_a          20.9854
_cell_length_b          38.3385
_cell_length_c          25.5662
_cell_angle_alpha       90.0000
_cell_angle_beta        90.0000
_cell_angle_gamma       90.0000
loop_
_atom_site_label
_atom_site_type_symbol
_atom_site_fract_x
_atom_site_fract_y
_atom_site_fract_z
A_2     C     0.7425     0.1701     0.2869
A_3     C     0.5966     0.5086     0.4906
A_0     C     0.4867     0.7708     0.9397
A_0     C     0.153     0.0774     0.0322
A_0     C     0.8125     0.7683     0.2933
A_1     C     0.8917     0.623     0.49
A_2     C     0.3934     0.8262     0.2257
A_2     C     0.6289     0.6378     0.0793
A_0     C     0.7833     0.5267     0.6694
A_0     C     0.7007     0.0012     0.3712
A_2     C     0.7063     0.7608     0.874
A_2     C     0.2166     0.7167     0.659
A_2     C     0.0615     0.9917     0.8122
A_3     C     0.8492     0.7945     0.7258
A_3     C     0.2151     0.1579     0.5346
A_3     C     0.7099     0.4858     0.5793
A_3     C     0.6692     0.8548     0.8639
A_3     C     0.8969     0.4541     0.2472
A_3     C     0.727     0.9271     0.5725
A_3     C     0.431     0.9717     0.7904
A_2     C     0.8605     0.7345     0.3757
A_0     C     0.9474     0.6142     0.7665
A_2     C     0.9584     0.5323     0.1277
A_1     C     0.5038     0.9335     0.4992
A_0     C     0.0814     0.9656     0.3652
A_1     C     0.9182     0.1902     0.6726
A_1     C     0.9242     0.3147     0.8214
A_1     C     0.7331     0.2423     0.6087
A_3     C     0.6845     0.8122     0.1595
A_2     C     0.6924     0.8548     0.4764
A_1     C     0.5385     0.0341     0.5168
A_0     C     0.0421     0.6916     0.6435
A_0     C     0.8801     0.8149     0.9236
A_0     C     0.255     0.6104     0.1343
A_0     C     0.7639     0.8165     0.8386
A_3     C     0.5174     0.8144     0.1711
A_0     C     0.1005     0.8865     0.7268
A_2     C     0.4581     0.1619     0.4451
A_1     C     0.3616     0.8776     0.9293
A_3     C     0.6335     0.6443     0.5253
A_1     C     0.7787     0.9385     0.2147
A_1     C     0.4014     0.3804     0.0685
A_2     C     0.3192     0.343     0.0579
A_1     C     0.1265     0.2149     0.2364
A_3     C     0.1235     0.4339     0.1442
A_1     C     0.3233     0.7566     0.682
A_3     C     0.1639     0.8406     0.8903
A_2     C     0.6603     0.9398     0.3838
A_3     C     0.8671     0.7803     0.0858
A_3     C     0.8909     0.3741     0.5177
A_1     C     0.8735     0.9192     0.2829
A_1     C     0.2134     0.2381     0.6734
A_3     C     0.4145     0.1374     0.471
A_3     C     0.5067     0.2295     0.4585
A_3     C     0.349     0.6871     0.2387
A_2     C     0.9205     0.2011     0.4638
A_1     C     0.5057     0.4688     0.6037
A_3     C     0.726     0.1003     0.7261
A_0     C     0.3228     0.6402     0.4967
A_2     C     0.0037     0.7515     0.1943
A_3     C     0.7052     0.9124     0.4233
A_0     C     0.8162     0.9824     0.0434
A_1     C     0.7943     0.4281     0.1061
A_2     C     0.7513     0.9999     0.3445
A_2     C     0.154     0.3763     0.216
A_2     C     0.7     0.9371     0.6284
A_1     C     0.3828     0.0403     0.4998
A_3     C     0.9574     0.3332     0.4641
A_3     C     0.8898     0.7053     0.5741
A_3     C     0.1343     0.416     0.3568
A_1     C     0.0368     0.3848     0.4525
A_0     C     0.1171     0.2359     0.0824
A_1     C     0.109     0.1388     0.9972
A_2     C     0.2963     0.9196     0.4352
A_3     C     0.531     0.182     0.8345
A_2     C     0.3765     0.5441     0.945
A_0     C     0.9334     0.1591     0.7782
A_1     C     0.4121     0.1433     0.3892
A_3     C     0.8683     0.1737     0.8665
A_0     C     0.0337     0.8448     0.8435
A_1     C     0.0409     0.4814     0.3488
A_3     C     0.1203     0.1715     0.5299
A_1     C     0.3205     0.1101     0.2636
A_2     C     0.0558     0.5456     0.7699
A_3     C     0.8521     0.5569     0.2963
A_0     C     0.1711     0.998     0.4524
A_3     C     0.1206     0.0817     0.9937
A_1     C     0.0635     0.8842     0.0153
A_3     C     0.2848     0.6529     0.3548
A_0     C     0.9669     0.4704     0.3865
A_1     C     0.4327     0.43     0.2599
A_3     C     0.3987     0.0495     0.7287
A_1     C     0.6514     0.1349     0.1079
A_1     C     0.9549     0.0126     0.0457
A_3     C     0.0182     0.3951     0.3664
A_2     C     0.9442     0.0488     0.7135
A_0     C     0.7677     0.8063     0.7767
A_2     C     0.1617     0.1069     0.7981
A_1     C     0.4273     0.6327     0.1722
A_3     C     0.3083     0.0269     0.0571
A_0     C     0.4494     0.3935     0.1685
A_1     C     0.3427     0.4941     0.5191
A_3     C     0.2681     0.7436     0.021
A_0     C     0.4558     0.9528     0.8561
A_3     C     0.0927     0.2238     0.6002
A_2     C     0.6004     0.2895     0.691
A_1     C     0.5558     0.8182     0.7148
A_3     C     0.3862     0.4909     0.2783
A_3     C     0.2272     0.925     0.6183
A_1     C     0.421     0.9521     0.4455
A_2     C     0.9487     0.2369     0.2689
A_1     C     0.7197     0.0677     0.6755
A_0     C     0.4527     0.0855     0.6323
A_1     C     0.7551     0.2398     0.1648
A_0     C     0.1388     0.8237     0.878
A_2     C     0.5426     0.97     0.6764
A_1     C     0.6242     0.8734     0.0866
A_2     C     0.8906     0.491     0.391
A_1     C     0.8804     0.0979     0.6494
A_3     C     0.3035     0.2094     0.0933
A_1     C     0.6395     0.8827     0.1315
A_1     C     0.7545     0.0264     0.7259
A_3     C     0.2468     0.9584     0.1058
A_3     C     0.7969     0.1646     0.8369
A_0     C     0.0239     0.707     0.2592
A_2     C     0.6011     0.3282     0.4759
A_3     C     0.3746     0.0487     0.1789
A_2     C     0.1391     0.4596     0.9661
A_2     C     0.5965     0.5417     0.3401
A_1     C     0.6773     0.9311     0.5409
A_2     C     0.027     0.5631     0.7436
A_1     C     0.4812     0.7474     0.408
A_0     C     0.1316     0.4656     0.2715
A_1     C     0.2939     0.2113     0.9567
A_1     C     0.1168     0.0927     0.3296
A_0     C     0.6888     0.0106     0.6443
A_0     C     0.8265     0.1418     0.417
A_1     C     0.8298     0.3986     0.2896
A_2     C     0.1227     0.2947     0.3303
A_3     C     0.3635     0.739     0.9258
A_1     C     0.3171     0.4976     0.4084
A_3     C     0.612     0.8256     0.7438
A_1     C     0.9756     0.3421     0.2177
A_0     C     0.937     0.9365     0.043
A_3     C     0.2278     0.8465     0.2871
A_3     C     0.9049     0.9942     0.2178
A_0     C     0.2739     0.4063     0.7196
A_1     C     0.6208     0.2399     0.9483
A_3     C     0.8146     0.9083     0.8954
A_3     C     0.3595     0.483     0.3452
A_1     C     0.5092     0.8315     0.1184
A_3     C     0.423     0.364     0.3762
A_0     C     0.8277     0.3987     0.9638
A_0     C     0.6898     0.9451     0.5984
A_1     C     0.8947     0.8021     0.5528
A_0     C     0.4282     0.1211     0.0415
A_0     C     0.6622     0.8564     0.6433
A_1     C     0.4666     0.0449     0.112
A_2     C     0.2895     0.4895     0.9417
A_0     C     0.6869     0.8711     0.7508
A_0     C     0.419     0.3307     0.9276
A_0     C     0.0776     0.6979     0.8641
A_2     C     0.2422     0.3638     0.6263
A_0     C     0.4459     0.8664     0.5394
A_2     C     0.6881     0.1074     0.3822
A_0     C     0.1328     0.213     0.0201
A_0     C     0.0562     0.657     0.0809
A_2     C     0.038     0.9445     0.9514
A_3     C     0.3458     0.645     0.0539
A_3     C     0.1679     0.0609     0.0849
A_2     C     0.2018     0.5049     0.0131
A_1     C     0.1517     0.4028     0.2535
A_0     C     0.3433     0.8871     0.4295
A_0     C     0.2388     0.212     0.2152
A_0     C     0.9293     0.6735     0.7929
A_2     C     0.8478     0.8192     0.3794
A_1     C     0.8466     0.8046     0.3026
A_1     C     0.3711     0.1991     0.7911
A_2     C     0.0217     0.587     0.3247
A_0     C     0.9028     0.0925     0.6617
A_0     C     0.1274     0.6479     0.1823
A_2     C     0.9234     0.2906     0.1171
A_2     C     0.4677     0.6147     0.3837
A_0     C     0.675     0.8343     0.898
A_2     C     0.3766     0.8953     0.984
A_1     C     0.5437     0.3894     0.3327
A_0     C     0.632     0.6268     0.8821
A_3     C     0.8628     0.5599     0.2518
A_0     C     0.3586     0.9702     0.09
A_0     C     0.493     0.6763     0.1263
A_2     C     0.2171     0.7028     0.8815
A_3     C     0.4937     0.0539     0.3081
A_0     C     0.6071     0.4242     0.9177
A_3     C     0.0837     0.7043     0.2624
A_1     C     0.6587     0.5598     0.3259
A_2     C     0.7097     0.8006     0.9773
A_2     C     0.7677     0.3497     0.6312
A_1     C     0.5121     0.5779     0.7631
A_3     C     0.0262     0.055     0.8964
A_3     C     0.2454     0.1857     0.2289
A_3     C     0.279     0.6379     0.5095
A_3     C     0.9623     0.9679     0.2815
A_3     C     0.8988     0.4878     0.9113
A_3     C     0.5053     0.6969     0.6086
A_3     C     0.6948     0.6033     0.7423
A_1     C     0.2754     0.2515     0.7909
A_1     C     0.647     0.3826     0.5084
A_3     C     0.8975     0.0912     0.2963
A_2     C     0.7533     0.1586     0.504
A_1     C     0.6493     0.5597     0.7623
A_0     C     0.8644     0.1337     0.2061
A_2     C     0.9141     0.8754     0.6552
A_2     C     0.5647     0.8623     0.992
A_0     C     0.9924     0.5932     0.8694
A_3     C     0.7493     0.3071     0.2174
A_0     C     0.2901     0.454     0.1005
A_0     C     0.6327     0.3321     0.8485
A_0     C     0.7138     0.4983     0.2722
A_1     C     0.4913     0.6691     0.5662
A_2     C     0.95     0.739     0.0367
A_1     C     0.3623     0.1026     0.1545
A_3     C     0.137     0.3336     0.8892
A_1     C     0.5739     0.8862     0.2702
A_0     C     0.6873     0.0274     0.1574
A_3     C     0.5131     0.6966     0.4199
A_1     C     0.6771     0.3749     0.5452
A_1     C     0.694     0.5434     0.4935
A_1     C     0.7707     0.8373     0.4262
A_2     C     0.289     0.1294     0.2159
A_2     C     0.5313     0.5182     0.0282
A_2     C     0.0443     0.1591     0.3279
A_3     C     0.1537     0.0702     0.4481
A_2     C     0.4973     0.6179     0.2376
A_2     C     0.5946     0.4165     0.7921
A_2     C     0.7029     0.0273     0.3178
A_1     C     0.4278     0.3762     0.8386
A_1     C     0.1549     0.062     0.6983
A_0     C     0.1534     0.3187     0.7285
A_0     C     0.9189     0.4917     0.5774
A_3     C     0.7215     0.2009     0.0997
A_2     C     0.9867     0.6845     0.1325
A_2     C     0.698     0.8391     0.8023
A_2     C     0.5417     0.4781     0.4851
A_2     C     0.2745     0.0195     0.7812
A_3     C     0.5257     0.7173     0.6947
A_0     C     0.1387     0.3204     0.5817
A_1     C     0.9752     0.2175     0.9077
A_2     C     0.3479     0.46     0.969
A_3     C     0.3098     0.5048     0.7633
A_0     C     0.519     0.7287     0.6887
A_3     C     0.5958     0.7475     0.2506
A_0     C     0.5976     0.107     0.6515
A_3     C     0.4859     0.6272     0.9705
A_3     C     0.9195     0.667     0.8388
A_3     C     0.7468     0.9285     0.938
A_3     C     0.3289     0.0671     0.9999
A_2     C     0.9757     0.1904     0.5636
A_3     C     0.4394     0.4848     0.6179
A_1     C     0.5823     0.4447     0.1555
A_1     C     0.8699     0.9342     0.1897
A_1     C     0.141     0.321     0.9287
A_2     C     0.8472     0.7315     0.559
A_2     C     0.7662     0.3141     0.3927
A_0     C     0.5731     0.1442     0.6848
A_3     C     0.1566     0.4434     0.2752
A_1     C     0.5372     0.5462     0.5884
A_3     C     0.4642     0.4565     0.6745
A_0     C     0.4777     0.8422     0.5754
A_2     C     0.9713     0.4447     0.8845
A_1     C     0.8406     0.7735     0.8885
A_0     C     0.7322     0.2592     0.2925
A_3     C     0.7098     0.3142     0.4791
A_2     C     0.1692     0.3094     0.9071
A_2     C     0.8786     0.8079     0.5985
A_3     C     0.5865     0.7712     0.0084
A_0     C     0.3172     0.3383     0.7271
A_2     C     0.9358     0.3046     0.2845
A_2     C     0.5314     0.4428     0.0653
A_3     C     0.7206     0.7348     0.1755
A_3     C     0.7208     0.4195     0.3061
A_3     C     0.7542     0.4528     0.894
A_2     C     0.4512     0.2602     0.9552
A_2     C     0.7358     0.1772     0.6788
A_0     C     0.251     0.8459     0.367
A_1     C     0.1125     0.2923     0.9631
A_2     C     0.2445     0.2218     0.8682
A_1     C     0.6074     0.0249     0.3009
A_0     C     0.8152     0.0107     0.1975
A_0     C     0.7451     0.9218     0.6315
A_1     C     0.2191     0.2206     0.6015
A_3     C     0.3219     0.3489     0.7577
A_3     C     0.3092     0.0457     0.3998
A_2     C     0.4533     0.9155     0.5826
A_0     C     0.5627     0.6352     0.1952
A_0     C     0.0334     0.1475     0.4353
A_2     C     0.1853     0.5611     0.5819
A_0     C     0.276     0.4336     0.4876
A_3     C     0.2414     0.5628     0.8958
A_3     C     0.0378     0.8085     0.0107
A_3     C     0.2225     0.2464     0.5293
A_1     C     0.3208     0.9602     0.4514
A_0     C     0.0585     0.603     0.9857
A_3     C     0.547     0.8064     0.2243
A_0     C     0.3363     0.7994     0.7756
A_1     C     0.6766     0.7293     0.5069
A_0     C     0.3095     0.2664     0.4681
A_2     C     0.9234     0.0049     0.5464
A_0     C     0.5503     0.0912     0.0035
A_2     C     0.3873     0.8344     0.5173
A_3     C     0.9069     0.8591     0.2286
A_3     C     0.0851     0.4155     0.3415
A_3     C     0.9067     0.401     0.3061
A_1     C     0.9459     0.9931     0.1201
A_1     C     0.7695     0.1237     0.9719
A_0     C     0.3585     0.1172     0.1159
A_3     C     0.4871     0.772     0.9845
A_0     C     0.6242     0.282     0.6807
A_3     C     0.4324     0.9256     0.8394
A_3     C     0.8553     0.4335     0.8964
A_1     C     0.4248     0.2278     0.2024
A_0     C     0.1916     0.9605     0.9442
A_0     C     0.2143     0.7084     0.4611
A_2     C     0.3479     0.4452     0.0236
A_1     C     0.1739     0.21     0.6824
A_1     C     0.4496     0.7613     0.2764
A_2     C     0.8749     0.411     0.9949
A_1     C     0.68     0.0638     0.6266
A_1     C     0.2817     0.4926     0.5915
A_3     C     0.3433     0.2432     0.955
A_3     C     0.4382     0.1457     0.0301
A_3     C     0.8422     0.8922     0.7428
A_0     C     0.2132     0.4552     0.3418
A_1     C     0.1844     0.7343     0.9245
A_3     C     0.8686     0.7013     0.6967
A_1     C     0.7863     0.0953     0.6207
A_3     C     0.6181     0.4009     0.0028
A_0     C     0.9345     0.8026     0.3634
A_0     C     0.4218     0.8011     0.28
A_2     C     0.6494     0.7384     0.0595
A_1     C     0.1721     0.3296     0.2528
A_2     C     0.7877     0.5779     0.9889
A_1     C     0.8153     0.8007     0.6928
A_3     C     0.8265     0.6852     0.7421
A_0     C     0.6584     0.168     0.4903
A_0     C     0.8229     0.5387     0.5102
A_1     C     0.0854     0.4482     0.9691
A_1     C     0.5121     0.5444     0.2355
A_3     C     0.4561     0.6727     0.5443
A_1     C     0.4693     0.7524     0.0117
A_2     C     0.0876     0.9698     0.7108
A_2     C     0.9096     0.2186     0.1545
A_0     C     0.3525     0.9963     0.8975
A_3     C     0.3519     0.2623     0.8579
A_2     C     0.0685     0.1575     0.0069
A_3     C     0.8459     0.8931     0.9555
A_0     C     0.9416     0.7477     0.2729
A_1     C     0.39     0.9832     0.7305
A_0     C     0.7948     0.6176     0.3775
A_2     C     0.4434     0.1646     0.8564
A_1     C     0.1685     0.3707     0.0266
A_1     C     0.078     0.9074     0.3401
A_0     C     0.0022     0.4093     0.3188
A_3     C     0.3452     0.2172     0.0187
A_1     C     0.5983     0.1335     0.3085
A_2     C     0.0837     0.5005     0.2704
A_3     C     0.1684     0.596     0.7092
A_0     C     0.6007     0.4857     0.0876
A_1     C     0.9504     0.4123     0.3483
A_2     C     0.3027     0.4817     0.2169
A_2     C     0.0197     0.7801     0.9241
A_2     C     0.9075     0.275     0.4696
A_3     C     0.8896     0.3362     0.8968
A_3     C     0.4629     0.2529     0.3865
A_3     C     0.2804     0.5073     0.8945
A_1     C     0.4912     0.9512     0.364
A_0     C     0.2873     0.2128     0.3715
A_1     C     0.5764     0.8432     0.7543
A_1     C     0.4581     0.3296     0.8259
A_1     C     0.0769     0.7621     0.8481
A_2     C     0.1456     0.0685     0.0434
A_3     C     0.9269     0.5426     0.7109
A_3     C     0.2928     0.6323     0.2125
A_1     C     0.826     0.2233     0.3359
A_2     C     0.8881     0.0367     0.0279
A_3     C     0.1744     0.9832     0.4452
A_3     C     0.2155     0.9403     0.7881
A_0     C     0.5161     0.101     0.6064
A_3     C     0.8203     0.2458     0.4133
A_0     C     0.9743     0.6134     0.3902
A_1     C     0.7724     0.181     0.8315
A_2     C     0.8963     0.0876     0.2146
A_2     C     0.0672     0.7785     0.5497
A_3     C     0.9924     0.593     0.7032
A_0     C     0.0097     0.9261     0.5908
A_3     C     0.1023     0.8699     0.8094
A_3     C     0.871     0.2563     0.68
A_2     C     0.6852     0.6303     0.0193
A_2     C     0.6491     0.6221     0.9403
A_3     C     0.7274     0.0185     0.3833
A_1     C     0.3189     0.8071     0.1602
A_2     C     0.947     0.39     0.6738
A_2     C     0.2349     0.847     0.4471
A_3     C     0.6016     0.4212     0.946
A_1     C     0.4759     0.018     0.1225
A_3     C     0.6269     0.6566     0.7125
A_0     C     0.7967     0.6216     0.9036
A_1     C     0.19     0.1005     0.937
A_3     C     0.9333     0.9498     0.7475
A_3     C     0.0539     0.1143     0.6637
A_0     C     0.6415     0.2922     0.9673
A_2     C     0.3272     0.9968     0.1446
A_3     C     0.5441     0.9009     0.3518
A_0     C     0.5444     0.0409     0.0934
A_1     C     0.972     0.6235     0.1563
A_3     C     0.6363     0.4655     0.0261
A_1     C     0.0905     0.0416     0.7543
A_0     C     0.886     0.3149     0.586
A_0     C     0.2886     0.3807     0.1593
A_0     C     0.7809     0.946     0.5138
A_3     C     0.2649     0.3127     0.1544
A_0     C     0.0243     0.7076     0.2318
A_2     C     0.1313     0.3907     0.7673
A_2     C     0.3084     0.944     0.4341
A_2     C     0.4062     0.2027     0.124
A_1     C     0.3354     0.4789     0.1116
A_0     C     0.155     0.6317     0.9855
A_0     C     0.4125     0.1092     0.6199
A_2     C     0.7954     0.6199     0.1266
A_1     C     0.9814     0.7518     0.7632
A_0     C     0.6379     0.8438     0.6872
A_3     C     0.454     0.5332     0.582
A_0     C     0.3388     0.93     0.9899
A_0     C     0.0391     0.5833     0.0849
A_3     C     0.0207     0.2019     0.1818
A_1     C     0.1352     0.8436     0.1778
A_3     C     0.2828     0.566     0.8818
A_3     C     0.1103     0.903     0.378
A_3     C     0.7743     0.9028     0.2317
A_0     C     0.9184     0.334     0.3723
A_0     C     0.0788     0.9928     0.4447
A_1     C     0.488     0.77     0.3385
A_1     C     0.8639     0.3941     0.5413
A_0     C     0.526     0.2319     0.8063
A_1     C     0.0531     0.6163     0.8408
A_0     C     0.5475     0.5887     0.1686
A_1     C     0.7625     0.8648     0.2408
A_3     C     0.8842     0.5753     0.0168
A_3     C     0.8632     0.8348     0.3939
A_0     C     0.8674     0.8822     0.5151
A_3     C     0.386     0.9835     0.4297
A_2     C     0.3179     0.8402     0.5184
A_1     C     0.3624     0.1141     0.7035
A_0     C     0.8508     0.4975     0.2171
A_0     C     0.5956     0.4502     0.2975
A_1     C     0.1712     0.3402     0.7036
A_3     C     0.3172     0.5849     0.6352
A_3     C     0.0829     0.4612     0.2894
A_0     C     0.8077     0.3352     0.926
A_2     C     0.2159     0.7576     0.8926
A_3     C     0.7757     0.845     0.0951
A_2     C     0.1483     0.0026     0.4389
A_2     C     0.0099     0.5037     0.4965
A_2     C     0.1775     0.154     0.7919
A_1     C     0.5829     0.7406     0.44
A_3     C     0.5575     0.6146     0.8155
A_3     C     0.7452     0.3679     0.7674
A_2     C     0.9723     0.0671     0.2758
A_0     C     0.2055     0.6326     0.1314
A_0     C     0.322     0.1866     0.0068
A_2     C     0.9327     0.1051     0.3284
A_3     C     0.1549     0.4851     0.9165
A_1     C     0.0096     0.3028     0.1249
A_2     C     0.0627     0.8679     0.1746
A_2     C     0.4055     0.2796     0.8134
A_2     C     0.348     0.669     0.2965
A_0     C     0.8761     0.9142     0.6524
A_2     C     0.244     0.6899     0.6424
A_1     C     0.7614     0.695     0.778
A_3     C     0.3335     0.0815     0.394
A_1     C     0.0629     0.4068     0.1023
A_1     C     0.1762     0.6154     0.5426
A_2     C     0.8688     0.204     0.4364
A_3     C     0.5069     0.1925     0.2423
A_2     C     0.7923     0.7048     0.696
A_1     C     0.8865     0.3259     0.7325
A_2     C     0.3951     0.4059     0.3783
A_0     C     0.7586     0.4568     0.5979
A_1     C     0.245     0.5288     0.3775
A_3     C     0.7015     0.4332     0.0643
A_0     C     0.5418     0.3539     0.3344
A_0     C     0.8712     0.5087     0.0957
A_3     C     0.7364     0.9961     0.3476
A_1     C     0.9953     0.7063     0.1616
A_3     C     0.3617     0.8216     0.6777
A_2     C     0.6189     0.9095     0.6604
A_1     C     0.5787     0.5853     0.7627
A_0     C     0.5954     0.3667     0.7967
A_1     C     0.5703     0.2526     0.8593
A_1     C     0.414     0.1189     0.2148
A_0     C     0.4724     0.0219     0.4775
A_1     C     0.794     0.155     0.5496
A_3     C     0.4449     0.2474     0.1504
A_3     C     0.5307     0.5502     0.0505
A_1     C     0.8214     0.6776     0.6761
A_2     C     0.6432     0.6692     0.5606
A_0     C     0.9058     0.5846     0.4844
A_1     C     0.5637     0.2513     0.3475
A_0     C     0.7472     0.9589     0.2728
A_3     C     0.2804     0.3636     0.0876
A_1     C     0.3194     0.5989     0.767
A_2     C     0.9292     0.5665     0.7587
A_0     C     0.339     0.8969     0.5844
A_1     C     0.5243     0.4203     0.0687
A_1     C     0.8187     0.2761     0.9206
A_0     C     0.3303     0.2405     0.6304
A_1     C     0.9617     0.6729     0.074
A_1     C     0.3317     0.5995     0.7062
A_2     C     0.246     0.6541     0.7727
A_1     C     0.1828     0.8978     0.1163
A_2     C     0.781     0.1754     0.2933
A_1     C     0.0516     0.5806     0.8123
A_0     C     0.4235     0.2735     0.8842
A_0     C     0.0556     0.4468     0.0539
A_1     C     0.1109     0.8602     0.2235
A_1     C     0.5953     0.624     0.9839
A_0     C     0.8877     0.7695     0.3739
A_3     C     0.7381     0.103     0.524
A_3     C     0.7133     0.9587     0.6211
A_1     C     0.831     0.2884     0.7965
A_3     C     0.0998     0.4376     0.2943
A_3     C     0.1935     0.2067     0.2691
A_3     C     0.6052     0.4105     0.6132
A_1     C     0.2989     0.777     0.1851
A_0     C     0.2111     0.6142     0.4051
A_2     C     0.8537     0.6582     0.8134
A_3     C     0.8652     0.6224     0.7509
A_3     C     0.2675     0.5699     0.858
A_1     C     0.5471     0.978     0.2872
A_2     C     0.7482     0.3193     0.8495
A_0     C     0.2438     0.8371     0.6769
A_3     C     0.4693     0.6651     0.5198
A_3     C     0.2442     0.3766     0.0048
A_3     C     0.2038     0.6401     0.0464
A_3     C     0.2799     0.2494     0.5247
A_3     C     0.6293     0.1511     0.1311
A_0     C     0.7961     0.4908     0.6872
A_2     C     0.0374     0.4411     0.0811
A_3     C     0.9913     0.9906     0.3208
A_0     C     0.5651     0.5052     0.9186
A_2     C     0.5533     0.5837     0.1059
A_2     C     0.4006     0.7759     0.3712
A_1     C     0.5122     0.8391     0.0691
A_2     C     0.1017     0.1202     0.07
A_0     C     0.854     0.4796     0.096
A_3     C     0.9433     0.4827     0.5034
A_1     C     0.0231     0.69     0.2557
A_2     C     0.138     0.3526     0.0155
A_2     C     0.1224     0.4426     0.1658
A_1     C     0.3129     0.5757     0.1717
A_2     C     0.4135     0.4937     0.9578
A_2     C     0.1006     0.1479     0.7775
A_2     C     0.2756     0.9162     0.834
A_2     C     0.1743     0.3997     0.7945
A_3     C     0.8278     0.3893     0.3977
A_1     C     0.7415     0.7318     0.9852
A_0     C     0.9941     0.6751     0.4959
A_1     C     0.867     0.8932     0.6329
A_2     C     0.6858     0.9799     0.7351
A_1     C     0.8711     0.4047     0.9368
A_1     C     0.0515     0.6853     0.7417
A_3     C     0.7819     0.4029     0.2053
A_3     C     0.8815     0.2603     0.9229
A_1     C     0.188     0.9243     0.216
A_0     C     0.693     0.7573     0.0235
A_1     C     0.7029     0.5708     0.7094
A_0     C     0.9116     0.1461     0.0978
A_3     C     0.682     0.1692     0.2657
A_2     C     0.6291     0.704     0.352
A_2     C     0.7779     0.8445     0.0879
A_0     C     0.7579     0.5146     0.7137
A_2     C     0.8461     0.6418     0.5913
A_2     C     0.6005     0.9595     0.7711
A_2     C     0.6137     0.1339     0.9254
A_3     C     0.3176     0.8231     0.432
A_2     C     0.776     0.1471     0.0834
A_1     C     0.635     0.5097     0.3875
A_1     C     0.775     0.2557     0.1838
A_2     C     0.6705     0.3083     0.341
A_0     C     0.6058     0.228     0.7399
A_3     C     0.9464     0.0454     0.3395
A_3     C     0.9113     0.884     0.3273
A_3     C     0.2267     0.6107     0.355
A_2     C     0.7854     0.0857     0.1888
A_0     C     0.3391     0.5251     0.4687
A_1     C     0.1919     0.1236     0.474
A_3     C     0.1205     0.4977     0.4127
A_0     C     0.52     0.3819     0.9419
A_0     C     0.3767     0.9646     0.7931
A_0     C     0.8179     0.3395     0.6513
A_3     C     0.9941     0.8099     0.6466
A_3     C     0.7866     0.0519     0.2895
A_3     C     0.1531     0.164     0.2495
A_1     C     0.9001     0.121     0.832
A_1     C     0.1422     0.325     0.7475
A_1     C     0.6903     0.8487     0.5541
A_2     C     0.6949     0.5795     0.8211
A_0     C     0.4716     0.5213     0.5744
A_1     C     0.4519     0.3586     0.1296
A_1     C     0.8763     0.9431     0.5486
A_3     C     0.7343     0.9995     0.4023
A_3     C     0.6115     0.0522     0.5712
A_0     C     0.5163     0.1352     0.1751
A_3     C     0.0367     0.183     0.482
A_3     C     0.4862     0.9125     0.9121
A_3     C     0.0481     0.5145     0.185
A_2     C     0.8802     0.4124     0.2783
A_3     C     0.733     0.1516     0.3317
A_2     C     0.3013     0.0046     0.5045
A_2     C     0.7461     0.0163     0.6141
A_3     C     0.6259     0.1254     0.6066
A_0     C     0.5337     0.2445     0.7081
A_0     C     0.5859     0.8215     0.1321
A_3     C     0.9903     0.3657     0.2252
A_3     C     0.2184     0.7637     0.8816
A_0     C     0.3975     0.1578     0.67
A_3     C     0.6401     0.1154     0.3394
A_1     C     0.362     0.2128     0.1491
A_3     C     0.39     0.6627     0.333
A_0     C     0.6658     0.9258     0.0909
A_0     C     0.7081     0.3079     0.7903
A_1     C     0.9612     0.4894     0.5204
A_3     C     0.1508     0.6938     0.3962
A_1     C     0.6413     0.1072     0.7636
A_3     C     0.668     0.9819     0.6368
A_0     C     0.8859     0.4218     0.4936
A_0     C     0.9427     0.935     0.9655
A_3     C     0.2219     0.9775     0.3002
A_3     C     0.3068     0.7484     0.9191
A_2     C     0.6894     0.97     0.4788
A_0     C     0.5068     0.8201     0.4231
A_3     C     0.949     0.256     0.62
A_0     C     0.3872     0.0209     0.2354
A_3     C     0.4058     0.7766     0.6744
A_3     C     0.471     0.964     0.6238
A_3     C     0.4455     0.3163     0.8136
A_3     C     0.9462     0.0088     0.7008
A_2     C     0.7536     0.4807     0.5685
A_0     C     0.0892     0.3544     0.9721
A_1     C     0.35     0.9915     0.998
A_0     C     0.304     0.0289     0.8342
A_3     C     0.1786     0.884     0.7566
A_3     C     0.6983     0.2016     0.8471
A_2     C     0.6273     0.1627     0.53
A_1     C     0.5218     0.1898     0.9678
A_0     C     0.2465     0.2473     0.9611
A_2     C     0.2064     0.308     0.1969
A_1     C     0.2685     0.5224     0.6846
A_2     C     0.3551     0.1731     0.2982
A_1     C     0.3523     0.9327     0.1491
A_3     C     0.5852     0.4641     0.9319
A_2     C     0.3747     0.4998     0.4639
A_1     C     0.3385     0.7597     0.8639
A_2     C     0.3779     0.0172     0.4215
A_0     C     0.0838     0.1047     0.9305
A_3     C     0.574     0.5348     0.4445
A_1     C     0.6645     0.357     0.759
A_2     C     0.9058     0.5916     0.3837
A_3     C     0.9692     0.7481     0.9655
A_3     C     0.4607     0.9421     0.7493
A_3     C     0.6869     0.9066     0.5492
A_1     C     0.6372     0.2559     0.0695
A_2     C     0.1359     0.0395     0.2512
A_2     C     0.023     0.4958     0.0545
A_0     C     0.6953     0.4856     0.6459
A_0     C     0.4926     0.0012     0.9831
A_3     C     0.4088     0.3807     0.7649
A_3     C     0.5315     0.6053     0.4036
A_3     C     0.4174     0.9405     0.1878
A_1     C     0.8599     0.8835     0.1162
A_2     C     0.3165     0.4415     0.329
A_2     C     0.3076     0.485     0.7447
A_0     C     0.3049     0.7999     0.9353
A_1     C     0.5251     0.6752     0.5136
A_3     C     0.5754     0.9652     0.6126
A_1     C     0.1706     0.7502     0.9844
A_2     C     0.0854     0.9785     0.6696
A_0     C     0.4794     0.4707     0.5881
A_3     C     0.339     0.3903     0.3598
A_1     C     0.7544     0.9987     0.0061
A_1     C     0.1377     0.1075     0.612
A_0     C     0.4168     0.1138     0.7737
A_0     C     0.5978     0.935     0.2027
A_1     C     0.4861     0.9704     0.6971
A_2     C     0.5057     0.5959     0.1035
A_3     C     0.9215     0.5129     0.4605
A_3     C     0.9919     0.2672     0.8308
A_2     C     0.2136     0.433     0.8303
A_0     C     0.343     0.5663     0.3251
A_2     C     0.9861     0.1405     0.1734
A_0     C     0.1671     0.638     0.1984
A_3     C     0.5781     0.5613     0.8163
A_3     C     0.7504     0.4727     0.5183
A_3     C     0.069     0.5849     0.987
A_3     C     0.9172     0.6469     0.3429
A_1     C     0.9918     0.5192     0.7382
A_1     C     0.0045     0.2199     0.8012
A_1     C     0.731     0.0191     0.5191
A_0     C     0.6715     0.4354     0.9014
A_3     C     0.2215     0.1444     0.3783
A_0     C     0.5853     0.9738     0.217
A_2     C     0.2226     0.8805     0.0596
A_2     C     0.3659     0.7281     0.1796
A_2     C     0.4496     0.1436     0.8292
A_1     C     0.0874     0.2008     0.1394
A_1     C     0.4618     0.7934     0.9745
A_3     C     0.8597     0.7048     0.8849
A_0     C     0.4775     0.8415     0.7153
A_3     C     0.1808     0.5426     0.61
A_3     C     0.5184     0.4575     0.8676
A_0     C     0.2611     0.3268     0.4803
A_2     C     0.2135     0.958     0.5612
A_1     C     0.121     0.2571     0.3862
A_1     C     0.9869     0.6189     0.7933
A_2     C     0.0496     0.4691     0.4049
A_0     C     0.4819     0.8585     0.8384
A_1     C     0.5988     0.7597     0.673
A_2     C     0.1005     0.8045     0.7426
