MAT-63

loop_
_symmetry_equiv_pos_as_xyz
  x,y,z
_cell_length_a          39.5405
_cell_length_b          46.1611
_cell_length_c          35.1523
_cell_angle_alpha       90.0000
_cell_angle_beta        90.0000
_cell_angle_gamma       90.0000
loop_
_atom_site_label
_atom_site_type_symbol
_atom_site_fract_x
_atom_site_fract_y
_atom_site_fract_z
A_1     C     0.8364     0.2233     0.9178
A_3     C     0.7139     0.441     0.5312
A_0     C     0.9809     0.8503     0.7634
A_2     C     0.2119     0.306     0.6596
A_0     C     0.2837     0.293     0.0988
A_3     C     0.1521     0.0356     0.6732
A_2     C     0.4546     0.5598     0.2386
A_3     C     0.6621     0.8767     0.6612
A_3     C     0.9937     0.862     0.4713
A_2     C     0.7547     0.588     0.577
A_3     C     0.0106     0.7684     0.8779
A_2     C     0.6562     0.9741     0.745
A_3     C     0.6403     0.5218     0.0484
A_2     C     0.5663     0.859     0.8676
A_3     C     0.4187     0.8046     0.9828
A_0     C     0.7019     0.9781     0.9034
A_3     C     0.0342     0.3651     0.638
A_3     C     0.6038     0.0648     0.2531
A_3     C     0.5044     0.2241     0.8395
A_1     C     0.8269     0.6243     0.6837
A_1     C     0.9886     0.3267     0.4288
A_1     C     0.8673     0.7107     0.2531
A_2     C     0.5511     0.9398     0.9901
A_2     C     0.4648     0.8239     0.7347
A_1     C     0.6386     0.3975     0.377
A_3     C     0.2942     0.2443     0.56
A_3     C     0.3586     0.5745     0.7206
A_2     C     0.3781     0.2179     0.3801
A_1     C     0.1709     0.2243     0.1151
A_3     C     0.0956     0.0742     0.4611
A_1     C     0.2108     0.5251     0.7058
A_0     C     0.6054     0.7251     0.0859
A_2     C     0.7421     0.6643     0.311
A_3     C     0.0479     0.5168     0.2361
A_3     C     0.7388     0.6152     0.9117
A_3     C     0.6425     0.5852     0.1192
A_3     C     0.2108     0.7429     0.9629
A_2     C     0.6098     0.9289     0.6603
A_3     C     0.9182     0.6986     0.1814
A_3     C     0.0686     0.8039     0.7719
A_1     C     0.6868     0.0142     0.6186
A_2     C     0.6291     0.9447     0.307
A_2     C     0.2641     0.9167     0.9244
A_0     C     0.7647     0.1689     0.4665
A_3     C     0.8576     0.5935     0.313
A_2     C     0.2084     0.1747     0.7971
A_0     C     0.6769     0.1549     0.7817
A_2     C     0.5089     0.4043     0.9574
A_3     C     0.3046     0.6683     0.363
A_3     C     0.7665     0.3189     0.3113
A_2     C     0.1028     0.3978     0.1778
A_2     C     0.273     0.1681     0.4327
A_2     C     0.8638     0.6813     0.1101
A_3     C     0.6049     0.9718     0.855
A_0     C     0.2512     0.0343     0.6624
A_1     C     0.4746     0.0838     0.3264
A_1     C     0.8166     0.9886     0.6151
A_1     C     0.6417     0.576     0.0504
A_3     C     0.0222     0.9017     0.1178
A_2     C     0.2681     0.484     0.4036
A_1     C     0.8687     0.4305     0.8199
A_3     C     0.0969     0.3339     0.6967
A_2     C     0.5033     0.0174     0.8447
A_0     C     0.2404     0.041     0.7916
A_0     C     0.1217     0.1902     0.2126
A_3     C     0.5834     0.0692     0.8318
A_0     C     0.2015     0.6513     0.3804
A_0     C     0.7874     0.0211     0.9862
A_0     C     0.5451     0.4605     0.5335
A_0     C     0.2968     0.2967     0.8233
A_3     C     0.5025     0.9839     0.7361
A_2     C     0.1956     0.2696     0.7568
A_1     C     0.0087     0.9883     0.4437
A_3     C     0.3826     0.3457     0.4912
A_3     C     0.4015     0.5408     0.9708
A_1     C     0.3984     0.6398     0.8431
A_3     C     0.7154     0.22     0.0637
A_0     C     0.995     0.4713     0.1584
A_1     C     0.3089     0.7686     0.3603
A_1     C     0.8248     0.7803     0.9292
A_2     C     0.8091     0.8564     0.6582
A_1     C     0.9489     0.98     0.905
A_2     C     0.4532     0.3347     0.2949
A_2     C     0.5315     0.4621     0.9738
A_0     C     0.4155     0.6266     0.0968
A_1     C     0.5993     0.9894     0.6224
A_2     C     0.5515     0.7159     0.5187
A_3     C     0.0768     0.1491     0.1996
A_3     C     0.4206     0.5307     0.1344
A_1     C     0.0328     0.8831     0.8967
A_2     C     0.8653     0.7941     0.317
A_1     C     0.2609     0.9419     0.6786
A_2     C     0.5466     0.6449     0.8502
A_2     C     0.095     0.9781     0.5302
A_2     C     0.8271     0.0128     0.3524
A_3     C     0.283     0.6523     0.898
A_2     C     0.4365     0.075     0.0714
A_1     C     0.7184     0.3794     0.0074
A_1     C     0.8741     0.7513     0.5254
A_1     C     0.7414     0.0601     0.3386
A_1     C     0.5161     0.8509     0.8626
A_3     C     0.9954     0.9254     0.1073
A_3     C     0.7784     0.4847     0.462
A_3     C     0.186     0.1405     0.9343
A_0     C     0.9414     0.6015     0.0782
A_1     C     0.1115     0.0847     0.3046
A_3     C     0.6488     0.3973     0.9031
A_3     C     0.8244     0.7143     0.8311
A_0     C     0.8119     0.3589     0.4857
A_0     C     0.3353     0.8498     0.4578
A_1     C     0.9662     0.0291     0.9118
A_2     C     0.3697     0.3505     0.2742
A_0     C     0.331     0.1794     0.3935
A_1     C     0.0547     0.8299     0.6673
A_1     C     0.2845     0.3769     0.3251
A_1     C     0.8008     0.3633     0.5448
A_1     C     0.1425     0.9096     0.0047
A_2     C     0.5464     0.0894     0.9282
A_3     C     0.9304     0.8129     0.5344
A_3     C     0.0588     0.8203     0.7599
A_3     C     0.5051     0.3549     0.522
A_2     C     0.2901     0.442     0.0345
A_0     C     0.9906     0.0422     0.1719
A_3     C     0.4986     0.9978     0.2753
A_2     C     0.1314     0.6893     0.5931
A_0     C     0.4152     0.6869     0.4323
A_1     C     0.211     0.9893     0.3852
A_2     C     0.895     0.4026     0.9069
A_1     C     0.7246     0.2976     0.2967
A_1     C     0.1413     0.7805     0.5385
A_3     C     0.15     0.3526     0.3521
A_0     C     0.982     0.8767     0.5447
A_3     C     0.6195     0.7196     0.7968
A_0     C     0.0932     0.7963     0.9948
A_2     C     0.6859     0.4726     0.2668
A_1     C     0.1726     0.8892     0.456
A_1     C     0.5519     0.0908     0.9155
A_0     C     0.0361     0.5352     0.1894
A_2     C     0.9776     0.9897     0.8688
A_2     C     0.1842     0.0889     0.0127
A_0     C     0.1946     0.3856     0.5541
A_0     C     0.5315     0.4893     0.8949
A_0     C     0.8428     0.226     0.134
A_2     C     0.6866     0.8867     0.5921
A_2     C     0.4157     0.1976     0.5668
A_2     C     0.7686     0.3554     0.8907
A_2     C     0.23     0.8852     0.8465
A_1     C     0.1106     0.0606     0.7973
A_3     C     0.9035     0.375     0.7348
A_2     C     0.4498     0.2219     0.6077
A_0     C     0.1901     0.9884     0.5037
A_3     C     0.8103     0.3618     0.8991
A_1     C     0.5777     0.9285     0.6182
A_0     C     0.9191     0.2415     0.8335
A_3     C     0.9979     0.8313     0.6412
A_2     C     0.8855     0.917     0.1215
A_3     C     0.5336     0.7261     0.4954
A_2     C     0.9354     0.2977     0.4778
A_0     C     0.1689     0.799     0.852
A_1     C     0.6319     0.7888     0.1675
A_0     C     0.6577     0.6859     0.1071
A_2     C     0.0612     0.5475     0.1196
A_3     C     0.1567     0.432     0.4662
A_3     C     0.9397     0.73     0.6284
A_0     C     0.803     0.1273     0.7255
A_0     C     0.6528     0.2092     0.9487
A_3     C     0.6805     0.2026     0.5584
A_0     C     0.4317     0.5936     0.5274
A_2     C     0.7869     0.7659     0.2572
A_0     C     0.1808     0.8881     0.1348
A_2     C     0.9781     0.6462     0.8721
A_2     C     0.0379     0.8113     0.095
A_0     C     0.4853     0.9969     0.1379
A_1     C     0.6861     0.9839     0.3535
A_0     C     0.8141     0.6431     0.3715
A_0     C     0.2614     0.3642     0.1216
A_1     C     0.3685     0.8298     0.5701
A_3     C     0.7547     0.5377     0.5365
A_0     C     0.4815     0.5623     0.646
A_1     C     0.6565     0.8165     0.6646
A_0     C     0.493     0.9314     0.7903
A_0     C     0.0396     0.1996     0.2013
A_2     C     0.7043     0.3898     0.2717
A_1     C     0.6967     0.9937     0.9026
A_1     C     0.2728     0.0838     0.1725
A_1     C     0.3919     0.1658     0.9772
A_3     C     0.9754     0.6384     0.7585
A_0     C     0.8227     0.2829     0.8371
A_2     C     0.1946     0.3346     0.6013
A_1     C     0.9956     0.7568     0.4109
A_0     C     0.6123     0.3712     0.7942
A_2     C     0.5686     0.6631     0.8326
A_3     C     0.7807     0.5046     0.4375
A_3     C     0.5532     0.1392     0.065
A_0     C     0.7097     0.2042     0.2344
A_0     C     0.0534     0.2795     0.7095
A_2     C     0.7102     0.2954     0.4972
A_1     C     0.0978     0.4329     0.7088
A_0     C     0.2014     0.7186     0.7575
A_1     C     0.0382     0.5611     0.9721
A_3     C     0.611     0.5527     0.2855
A_0     C     0.2614     0.9311     0.0189
A_0     C     0.9241     0.4276     0.7176
A_2     C     0.4783     0.9912     0.5886
A_1     C     0.8511     0.7733     0.8724
A_3     C     0.3548     0.0169     0.0969
A_2     C     0.4052     0.7697     0.3418
A_1     C     0.2737     0.9352     0.4116
A_3     C     0.3508     0.435     0.7895
A_0     C     0.18     0.81     0.5064
A_3     C     0.6831     0.0386     0.7187
A_2     C     0.5666     0.7409     0.0219
A_2     C     0.9112     0.1655     0.4688
A_2     C     0.2891     0.7741     0.162
A_1     C     0.3792     0.5264     0.0161
A_3     C     0.7909     0.5603     0.2758
A_1     C     0.1586     0.3663     0.7805
A_2     C     0.5122     0.7608     0.7535
A_3     C     0.4141     0.4945     0.8667
A_3     C     0.3522     0.3636     0.9962
A_1     C     0.4741     0.576     0.1775
A_2     C     0.0026     0.943     0.2085
A_1     C     0.0964     0.3619     0.8
A_0     C     0.4069     0.2562     0.1413
A_2     C     0.2663     0.5406     0.3164
A_1     C     0.4692     0.5287     0.9727
A_1     C     0.0997     0.9912     0.031
A_3     C     0.2698     0.8767     0.4449
A_0     C     0.8695     0.4267     0.9381
A_3     C     0.4339     0.7695     0.8703
A_2     C     0.1018     0.128     0.0645
A_0     C     0.0036     0.3056     0.4365
A_3     C     0.7808     0.3343     0.4379
A_0     C     0.6816     0.3787     0.4493
A_2     C     0.0334     0.4826     0.5447
A_3     C     0.5612     0.9327     0.2969
A_0     C     0.188     0.9153     0.8886
A_1     C     0.5519     0.0926     0.019
A_2     C     0.5961     0.8972     0.5181
A_1     C     0.2493     0.9708     0.9769
A_2     C     0.9976     0.7662     0.5964
A_1     C     0.2385     0.588     0.9451
A_2     C     0.4294     0.7354     0.4496
A_0     C     0.1504     0.852     0.7619
A_2     C     0.8814     0.2017     0.5604
A_0     C     0.0002     0.6388     0.7671
A_3     C     0.7738     0.7454     0.6947
A_0     C     0.8648     0.528     0.9808
A_1     C     0.0542     0.3356     0.5484
A_0     C     0.1325     0.205     0.0895
A_1     C     0.0207     0.8035     0.465
A_1     C     0.2167     0.6358     0.7014
A_3     C     0.7131     0.958     0.8614
A_0     C     0.1617     0.0988     0.1811
A_1     C     0.902     0.5964     0.459
A_3     C     0.4735     0.1456     0.194
A_2     C     0.9573     0.1374     0.9955
A_2     C     0.4917     0.2739     0.7098
A_1     C     0.8823     0.9248     0.3889
A_2     C     0.1658     0.4226     0.0987
A_3     C     0.4442     0.2592     0.4471
A_0     C     0.6214     0.6102     0.4054
A_2     C     0.3161     0.6289     0.9508
A_2     C     0.6369     0.859     0.2162
A_1     C     0.1799     0.7526     0.3892
A_3     C     0.0727     0.4663     0.4759
A_2     C     0.5563     0.004     0.157
A_3     C     0.7204     0.3839     0.8458
A_0     C     0.8467     0.672     0.3822
A_3     C     0.8005     0.6389     0.4912
A_3     C     0.3703     0.3983     0.8433
A_0     C     0.8203     0.5334     0.3653
A_0     C     0.8396     0.3943     0.4522
A_2     C     0.0353     0.8364     0.7505
A_3     C     0.12     0.9535     0.2904
A_3     C     0.9853     0.5864     0.4344
A_2     C     0.6177     0.987     0.9015
A_2     C     0.9477     0.9814     0.7836
A_0     C     0.8533     0.4043     0.3841
A_2     C     0.094     0.6844     0.1552
A_2     C     0.4289     0.7477     0.5361
A_1     C     0.4022     0.5093     0.8806
A_1     C     0.8865     0.4938     0.6259
A_3     C     0.4864     0.7335     0.9427
A_0     C     0.2944     0.4559     0.7742
A_0     C     0.5149     0.7624     0.7848
A_3     C     0.1013     0.2877     0.9978
A_1     C     0.5098     0.9202     0.9149
A_3     C     0.2885     0.5993     0.0527
A_2     C     0.0161     0.9666     0.5279
A_2     C     0.9916     0.0024     0.2348
A_3     C     0.9167     0.0905     0.0878
A_0     C     0.6672     0.6769     0.559
A_3     C     0.9802     0.6772     0.8797
A_3     C     0.4993     0.3939     0.4606
A_0     C     0.0474     0.5366     0.0988
A_0     C     0.2629     0.0972     0.9303
A_3     C     0.5261     0.4676     0.029
A_0     C     0.8661     0.1622     0.3097
A_2     C     0.9629     0.6953     0.5376
A_3     C     0.0541     0.1939     0.8917
A_2     C     0.6347     0.2608     0.3946
A_2     C     0.2742     0.8501     0.9038
A_1     C     0.6896     0.1152     0.3629
A_3     C     0.0699     0.0363     0.322
A_2     C     0.2252     0.2838     0.8198
A_2     C     0.1553     0.3916     0.9299
A_2     C     0.0625     0.2498     0.4187
A_2     C     0.6133     0.7927     0.3545
A_2     C     0.7119     0.7286     0.3348
A_2     C     0.242     0.263     0.7484
A_2     C     0.983     0.1964     0.0343
A_2     C     0.6952     0.2259     0.0172
A_2     C     0.5161     0.1214     0.6277
A_2     C     0.3321     0.3171     0.8851
A_2     C     0.2011     0.2886     0.1786
A_2     C     0.0845     0.8941     0.1387
A_2     C     0.1497     0.6428     0.5055
A_2     C     0.5739     0.206     0.5068
A_2     C     0.2784     0.9523     0.5744
A_2     C     0.3887     0.3724     0.811
A_2     C     0.3488     0.5832     0.1638
A_2     C     0.3232     0.0946     0.1922
A_2     C     0.4375     0.4173     0.3913
A_2     C     0.4298     0.0585     0.2425
A_2     C     0.813     0.876     0.2031
A_2     C     0.8504     0.3276     0.525
A_2     C     0.7577     0.6505     0.603
A_2     C     0.585     0.6217     0.7014
A_2     C     0.3817     0.0966     0.2152
A_2     C     0.587     0.3392     0.124
A_2     C     0.3127     0.3364     0.6792
A_2     C     0.3668     0.0843     0.8235
A_2     C     0.053     0.0672     0.4105
A_2     C     0.7091     0.2241     0.6484
A_2     C     0.638     0.4053     0.4087
A_2     C     0.675     0.2423     0.6026
A_2     C     0.9052     0.3929     0.9949
A_2     C     0.9366     0.6718     0.7837
A_2     C     0.7204     0.5163     0.0347
A_2     C     0.9531     0.4765     0.6845
A_2     C     0.4407     0.9525     0.2934
A_2     C     0.5851     0.8818     0.8085
A_2     C     0.0311     0.7187     0.3226
A_2     C     0.0158     0.9331     0.9695
A_2     C     0.17     0.6583     0.728
A_2     C     0.0101     0.1201     0.9264
A_2     C     0.4454     0.407     0.3617
A_2     C     0.2106     0.3408     0.1932
A_2     C     0.3789     0.5229     0.8059
A_2     C     0.8714     0.7442     0.8288
A_2     C     0.9713     0.094     0.132
A_2     C     0.8333     0.5416     0.4188
A_2     C     0.7247     0.6606     0.5554
A_2     C     0.6017     0.5611     0.6461
A_2     C     0.6266     0.4371     0.45
A_2     C     0.893     0.092     0.0695
A_2     C     0.3943     0.1503     0.6167
A_2     C     0.193     0.3577     0.9837
A_2     C     0.627     0.6985     0.9952
A_2     C     0.5938     0.4178     0.7684
A_2     C     0.1965     0.3852     0.2807
A_2     C     0.4665     0.5471     0.9321
A_2     C     0.5983     0.916     0.1036
A_2     C     0.5308     0.3585     0.0835
A_2     C     0.227     0.732     0.488
A_2     C     0.3228     0.5182     0.6636
A_2     C     0.8461     0.9191     0.6474
A_2     C     0.2932     0.8989     0.7883
A_2     C     0.3762     0.4895     0.497
A_2     C     0.9398     0.207     0.2649
A_2     C     0.6833     0.5326     0.0494
A_2     C     0.0326     0.4864     0.7585
A_2     C     0.6402     0.9795     0.6547
A_2     C     0.3207     0.3074     0.8857
A_2     C     0.1075     0.1512     0.4201
A_2     C     0.4418     0.4263     0.4727
A_2     C     0.0738     0.4269     0.4717
A_2     C     0.0342     0.6907     0.2668
A_2     C     0.7626     0.2883     0.7573
A_2     C     0.2391     0.8308     0.5512
A_2     C     0.8665     0.7302     0.5157
A_2     C     0.974     0.8703     0.5536
A_2     C     0.0565     0.5159     0.6828
A_2     C     0.1514     0.782     0.5428
A_2     C     0.5965     0.2109     0.9916
A_2     C     0.9282     0.1584     0.7269
A_2     C     0.7785     0.8642     0.6841
A_2     C     0.997     0.8561     0.9282
A_2     C     0.5015     0.6743     0.7673
A_2     C     0.1372     0.8201     0.8503
A_2     C     0.0433     0.285     0.6598
A_2     C     0.6386     0.1484     0.0514
A_2     C     0.0725     0.1954     0.1011
A_2     C     0.7161     0.6284     0.5058
A_2     C     0.6767     0.193     0.5404
A_2     C     0.7244     0.1524     0.2987
A_2     C     0.4622     0.9796     0.5254
A_2     C     0.9555     0.0571     0.6905
A_2     C     0.4699     0.8108     0.7772
A_2     C     0.1771     0.0361     0.0366
A_2     C     0.3117     0.5666     0.6871
A_2     C     0.4255     0.288     0.718
A_2     C     0.4428     0.7757     0.1086
A_2     C     0.2531     0.1177     0.5682
A_2     C     0.9939     0.7107     0.3615
A_2     C     0.8584     0.2091     0.5983
A_2     C     0.4047     0.8347     0.3264
A_2     C     0.1716     0.8507     0.9431
A_2     C     0.4278     0.3786     0.1166
A_2     C     0.892     0.1072     0.6517
A_2     C     0.2712     0.2862     0.9904
A_2     C     0.7216     0.6577     0.8211
A_2     C     0.2591     0.6528     0.6107
A_2     C     0.7762     0.6511     0.902
A_2     C     0.1931     0.2514     0.8282
A_2     C     0.9862     0.485     0.2604
A_2     C     0.5328     0.4519     0.8306
A_2     C     0.7583     0.3233     0.6341
A_2     C     0.9221     0.2798     0.5551
A_2     C     0.6791     0.3151     0.969
A_2     C     0.6686     0.8975     0.2763
A_2     C     0.0914     0.8099     0.168
A_2     C     0.3318     0.0771     0.6098
A_2     C     0.8843     0.9492     0.911
A_2     C     0.6409     0.5304     0.239
A_2     C     0.5016     0.5837     0.6278
A_2     C     0.8498     0.2565     0.9773
A_2     C     0.0318     0.8729     0.2393
A_2     C     0.5174     0.5403     0.3289
A_2     C     0.5261     0.8398     0.9647
A_2     C     0.9073     0.3586     0.8835
A_2     C     0.567     0.0974     0.5639
A_2     C     0.1659     0.1597     0.1841
A_2     C     0.0212     0.4804     0.1137
A_2     C     0.7802     0.9212     0.7766
A_2     C     0.7494     0.9262     0.884
A_2     C     0.4603     0.4531     0.1306
A_2     C     0.8236     0.9911     0.6593
A_2     C     0.367     0.9792     0.5626
A_2     C     0.6089     0.5089     0.1764
A_2     C     0.8529     0.5741     0.3276
A_2     C     0.374     0.3708     0.9723
A_2     C     0.627     0.8154     0.954
A_2     C     0.0791     0.749     0.5636
A_2     C     0.7001     0.5768     0.089
A_2     C     0.284     0.439     0.6091
A_2     C     0.4028     0.4706     0.975
A_2     C     0.0605     0.3533     0.5699
A_2     C     0.8042     0.4475     0.1897
A_2     C     0.0263     0.5764     0.1943
A_2     C     0.6673     0.0301     0.5647
A_2     C     0.5855     0.9358     0.1173
A_2     C     0.6795     0.8307     0.4063
A_2     C     0.9863     0.6416     0.853
A_2     C     0.3786     0.8977     0.8229
A_2     C     0.3784     0.886     0.1861
A_2     C     0.53     0.8136     0.7021
A_2     C     0.8585     0.4039     0.5911
A_2     C     0.9706     0.3576     0.7431
A_2     C     0.7049     0.5991     0.4148
A_2     C     0.2089     0.518     0.9532
A_2     C     0.9938     0.0884     0.4486
A_2     C     0.3136     0.6798     0.1307
A_2     C     0.6394     0.0003     0.5711
A_2     C     0.6282     0.1108     0.9511
A_2     C     0.248     0.3609     0.2033
A_2     C     0.4358     0.5115     0.4203
A_2     C     0.5822     0.5457     0.6492
A_2     C     0.2536     0.9598     0.1376
A_2     C     0.1576     0.8925     0.2874
A_2     C     0.0024     0.289     0.0803
A_2     C     0.6677     0.1538     0.7203
A_2     C     0.0834     0.7604     0.424
A_2     C     0.7409     0.1737     0.5025
A_2     C     0.7843     0.2131     0.8164
A_2     C     0.2051     0.1467     0.8686
A_2     C     0.7738     0.045     0.0675
A_2     C     0.6911     0.9556     0.0005
A_2     C     0.0499     0.6854     0.1204
A_2     C     0.012     0.7367     0.0227
A_2     C     0.4278     0.7148     0.5994
A_2     C     0.0313     0.8571     0.6194
A_2     C     0.4423     0.148     0.2519
A_2     C     0.6217     0.4378     0.8071
A_2     C     0.4186     0.5991     0.7963
A_2     C     0.2024     0.9843     0.2379
A_2     C     0.7374     0.0164     0.9699
A_2     C     0.101     0.6653     0.347
A_2     C     0.8297     0.411     0.0588
A_2     C     0.7679     0.1213     0.0627
A_2     C     0.6203     0.7551     0.7289
A_2     C     0.3756     0.0618     0.2676
A_2     C     0.4452     0.7424     0.2404
A_2     C     0.5513     0.0267     0.0615
A_2     C     0.3541     0.2121     0.0671
A_2     C     0.6301     0.7693     0.5754
A_2     C     0.5859     0.7383     0.4493
A_2     C     0.4121     0.0333     0.9636
A_2     C     0.6509     0.0465     0.8648
A_2     C     0.9398     0.9565     0.5412
A_2     C     0.9835     0.73     0.5827
A_2     C     0.7066     0.4325     0.2104
A_2     C     0.3721     0.8212     0.0453
A_2     C     0.9895     0.5829     0.6399
A_2     C     0.4982     0.0307     0.9488
A_2     C     0.6035     0.0827     0.2512
A_2     C     0.4932     0.6746     0.7764
A_2     C     0.5205     0.6479     0.5343
A_2     C     0.4884     0.1914     0.944
A_2     C     0.1189     0.2495     0.0823
A_2     C     0.3348     0.1173     0.063
A_2     C     0.8021     0.9182     0.9063
A_2     C     0.8473     0.023     0.838
A_2     C     0.4204     0.0124     0.9244
A_2     C     0.2392     0.3242     0.3046
A_2     C     0.6425     0.0945     0.8248
A_2     C     0.8527     0.1782     0.26
A_2     C     0.162     0.5193     0.0192
A_2     C     0.6495     0.9813     0.1161
A_2     C     0.3631     0.4866     0.4944
A_2     C     0.5943     0.5687     0.5851
A_2     C     0.3866     0.3134     0.2582
A_2     C     0.2063     0.7305     0.9182
A_2     C     0.1263     0.7929     0.5359
A_2     C     0.3305     0.9117     0.3558
A_2     C     0.1851     0.6806     0.0622
A_2     C     0.3334     0.2235     0.8971
A_2     C     0.878     0.0125     0.4763
A_2     C     0.8707     0.1422     0.0635
A_2     C     0.3316     0.2734     0.2554
A_2     C     0.7615     0.8741     0.5544
A_2     C     0.7947     0.5457     0.431
A_2     C     0.9312     0.6331     0.9628
A_2     C     0.1149     0.6099     0.0094
A_2     C     0.0488     0.3215     0.7321
A_2     C     0.9544     0.6037     0.8189
A_2     C     0.8003     0.0893     0.8491
A_2     C     0.3001     0.6396     0.1254
A_2     C     0.8755     0.1628     0.0368
A_2     C     0.2167     0.8135     0.0295
A_2     C     0.4861     0.4761     0.8551
A_2     C     0.7772     0.0016     0.8009
A_2     C     0.7266     0.0085     0.9369
A_2     C     0.6458     0.9747     0.0733
A_2     C     0.6234     0.8147     0.9527
A_2     C     0.6724     0.5455     0.6046
A_2     C     0.424     0.7457     0.0413
A_2     C     0.6772     0.1693     0.1155
A_2     C     0.5797     0.2964     0.5253
A_2     C     0.6075     0.3965     0.2931
A_2     C     0.2067     0.0653     0.7458
A_2     C     0.6107     0.905     0.0402
A_2     C     0.7998     0.5162     0.9243
A_2     C     0.9146     0.3336     0.0148
A_2     C     0.8512     0.376     0.8739
A_2     C     0.7051     0.0312     0.3845
A_2     C     0.2221     0.1199     0.2659
A_2     C     0.1482     0.0976     0.5851
A_2     C     0.9958     0.8407     0.8742
A_2     C     0.3676     0.2328     0.1491
A_2     C     0.7416     0.3477     0.2575
A_2     C     0.3851     0.4812     0.8085
A_2     C     0.5649     0.8406     0.3902
A_2     C     0.2084     0.3409     0.5079
A_2     C     0.2838     0.3386     0.9513
A_2     C     0.957     0.3009     0.5771
A_2     C     0.6911     0.6078     0.2691
A_2     C     0.288     0.5324     0.6801
A_2     C     0.184     0.9378     0.6021
A_2     C     0.0533     0.3385     0.0109
A_2     C     0.0419     0.6396     0.4703
A_2     C     0.0323     0.8487     0.5211
A_2     C     0.481     0.8689     0.5162
A_2     C     0.8855     0.7459     0.7623
A_2     C     0.4147     0.672     0.6942
A_2     C     0.9002     0.4017     0.0151
A_2     C     0.8526     0.6322     0.2423
A_2     C     0.4908     0.2758     0.3961
A_2     C     0.0553     0.7341     0.7466
A_2     C     0.7049     0.7565     0.0602
A_2     C     0.4052     0.6518     0.0721
A_2     C     0.4017     0.8579     0.2229
A_2     C     0.7187     0.1615     0.305
A_2     C     0.9887     0.6915     0.0417
A_2     C     0.5205     0.0304     0.6394
A_2     C     0.3589     0.8859     0.6148
A_2     C     0.0766     0.7369     0.4027
A_2     C     0.3638     0.0736     0.0774
A_2     C     0.4888     0.3682     0.4172
A_2     C     0.6979     0.7588     0.4885
A_2     C     0.6254     0.0422     0.4396
A_2     C     0.59     0.543     0.4517
A_2     C     0.9537     0.1064     0.4322
A_2     C     0.7209     0.6172     0.7699
A_2     C     0.0022     0.8859     0.1583
A_2     C     0.0445     0.0812     0.4778
A_2     C     0.9062     0.6418     0.6149
A_2     C     0.369     0.2046     0.8459
A_2     C     0.5048     0.2912     0.3904
A_2     C     0.5112     0.6534     0.4541
A_2     C     0.155     0.7919     0.5404
