MAT-7

loop_
_symmetry_equiv_pos_as_xyz
  x,y,z
_cell_length_a          13.635
_cell_length_b          37.7725
_cell_length_c          14.8077
_cell_angle_alpha       90.0000
_cell_angle_beta        90.0000
_cell_angle_gamma       90.0000
loop_
_atom_site_label
_atom_site_type_symbol
_atom_site_fract_x
_atom_site_fract_y
_atom_site_fract_z
A_3     C     0.0321     0.2086     0.4454
A_1     C     0.9043     0.9722     0.2229
A_2     C     0.3064     0.9785     0.7005
A_2     C     0.3244     0.9826     0.0099
A_3     C     0.203     0.2994     0.8027
A_1     C     0.3677     0.6322     0.8208
A_3     C     0.8627     0.4741     0.3627
A_2     C     0.8561     0.4737     0.1554
A_2     C     0.2083     0.7694     0.6982
A_2     C     0.32     0.4126     0.6345
A_0     C     0.5697     0.9546     0.9084
A_2     C     0.0575     0.3142     0.9075
A_3     C     0.4506     0.7603     0.8154
A_0     C     0.3542     0.5841     0.2271
A_2     C     0.8411     0.8229     0.0474
A_2     C     0.4192     0.0638     0.9786
A_3     C     0.8577     0.504     0.7551
A_1     C     0.3257     0.7568     0.6054
A_2     C     0.5618     0.9273     0.6413
A_0     C     0.8863     0.8088     0.2009
A_1     C     0.8134     0.6463     0.3482
A_2     C     0.5563     0.8026     0.9415
A_1     C     0.876     0.2024     0.3269
A_1     C     0.4704     0.6403     0.3212
A_0     C     0.6808     0.1534     0.1005
A_3     C     0.634     0.1073     0.8419
A_3     C     0.7002     0.409     0.0229
A_1     C     0.4126     0.5312     0.9765
A_0     C     0.1478     0.6486     0.4552
A_0     C     0.166     0.4703     0.2956
A_0     C     0.9332     0.9808     0.4691
A_0     C     0.3963     0.9676     0.9347
A_3     C     0.486     0.3899     0.8129
A_0     C     0.4707     0.7157     0.9504
A_1     C     0.303     0.7815     0.5808
A_1     C     0.4413     0.3103     0.3923
A_1     C     0.129     0.2239     0.8288
A_1     C     0.4742     0.0503     0.4651
A_1     C     0.7436     0.0801     0.0697
A_2     C     0.9762     0.3909     0.9918
A_3     C     0.3298     0.2224     0.1594
A_0     C     0.7442     0.5208     0.2639
A_3     C     0.685     0.3662     0.7289
A_3     C     0.8657     0.9642     0.0274
A_0     C     0.9131     0.0623     0.6944
A_2     C     0.3771     0.4587     0.5722
A_1     C     0.2589     0.5083     0.2758
A_3     C     0.0256     0.3432     0.3283
A_1     C     0.3618     0.6124     0.1892
A_3     C     0.224     0.7583     0.6442
A_0     C     0.6198     0.8121     0.3295
A_1     C     0.1348     0.4141     0.5485
A_1     C     0.5796     0.902     0.0054
A_2     C     0.089     0.5254     0.9186
A_3     C     0.627     0.3206     0.7321
A_2     C     0.5229     0.9968     0.3535
A_0     C     0.0953     0.7224     0.894
A_3     C     0.0553     0.0608     0.905
A_1     C     0.663     0.6844     0.6936
A_1     C     0.8187     0.1357     0.6705
A_2     C     0.0179     0.4216     0.5324
A_2     C     0.6484     0.9217     0.3081
A_1     C     0.6915     0.3462     0.6722
A_0     C     0.6382     0.8858     0.8673
A_2     C     0.5428     0.2616     0.2083
A_0     C     0.0218     0.0715     0.6509
A_1     C     0.6553     0.6939     0.6526
A_2     C     0.6098     0.6652     0.5425
A_2     C     0.9067     0.9671     0.7726
A_2     C     0.0211     0.2358     0.6784
A_3     C     0.9623     0.6307     0.7429
A_0     C     0.516     0.4449     0.902
A_0     C     0.3259     0.7514     0.9604
A_3     C     0.6712     0.1087     0.0901
A_0     C     0.047     0.6553     0.4079
A_2     C     0.21     0.9861     0.7439
A_0     C     0.8582     0.3631     0.7685
A_1     C     0.6109     0.1007     0.2577
A_3     C     0.0088     0.792     0.6356
A_1     C     0.7295     0.6979     0.1576
A_0     C     0.7064     0.641     0.7337
A_0     C     0.9471     0.6018     0.6716
A_1     C     0.4392     0.6177     0.0152
A_1     C     0.1487     0.7045     0.1335
A_3     C     0.8651     0.6462     0.1036
A_0     C     0.8899     0.5382     0.3007
A_1     C     0.97     0.4648     0.7452
A_2     C     0.4404     0.711     0.282
A_0     C     0.4761     0.6249     0.5557
A_2     C     0.2357     0.2958     0.5661
A_3     C     0.5005     0.1098     0.9564
A_3     C     0.0611     0.6393     0.7139
A_0     C     0.0899     0.5566     0.283
A_3     C     0.2282     0.2805     0.7329
A_2     C     0.3783     0.835     0.3775
A_3     C     0.3093     0.7366     0.9809
A_3     C     0.312     0.6002     0.8756
A_0     C     0.0831     0.2159     0.1911
A_2     C     0.5013     0.7391     0.5366
A_3     C     0.7278     0.5246     0.3735
A_0     C     0.6941     0.7268     0.3576
A_2     C     0.4782     0.1605     0.878
A_1     C     0.6149     0.0565     0.1926
A_1     C     0.9104     0.0349     0.0359
A_1     C     0.6302     0.6674     0.9833
A_0     C     0.4024     0.9511     0.5514
A_1     C     0.6181     0.9436     0.4222
A_0     C     0.9386     0.8605     0.5048
A_1     C     0.8208     0.6864     0.105
A_2     C     0.7883     0.1719     0.2869
A_3     C     0.6774     0.3575     0.6258
A_2     C     0.895     0.2759     0.5441
A_0     C     0.7541     0.9658     0.956
A_1     C     0.8092     0.1603     0.0369
A_0     C     0.7732     0.2717     0.9907
A_1     C     0.4739     0.3788     0.5441
A_1     C     0.9198     0.764     0.4816
A_1     C     0.3106     0.1754     0.2489
A_3     C     0.3794     0.5227     0.0108
A_0     C     0.8419     0.0253     0.7382
A_3     C     0.1943     0.0377     0.8305
A_0     C     0.4545     0.3453     0.2338
A_2     C     0.9381     0.6791     0.7018
A_3     C     0.2972     0.9182     0.5237
A_1     C     0.4921     0.9049     0.4967
A_2     C     0.1065     0.1698     0.7114
A_0     C     0.4049     0.6909     0.1404
A_3     C     0.2565     0.9179     0.783
A_0     C     0.7974     0.6825     0.6749
A_1     C     0.0779     0.2009     0.6126
A_2     C     0.0492     0.2676     0.8157
A_0     C     0.2104     0.3205     0.0821
A_1     C     0.4774     0.4748     0.736
A_0     C     0.7701     0.2141     0.1946
A_0     C     0.9253     0.93     0.4503
A_0     C     0.348     0.9419     0.0232
A_1     C     0.0119     0.291     0.4087
A_2     C     0.3786     0.2482     0.0373
A_2     C     0.0657     0.9441     0.0371
A_0     C     0.7962     0.1778     0.5148
A_1     C     0.6205     0.7021     0.1505
A_3     C     0.5397     0.2081     0.7041
A_2     C     0.5721     0.0198     0.582
A_2     C     0.854     0.0927     0.8097
A_2     C     0.8767     0.135     0.5714
A_3     C     0.0039     0.5362     0.2014
A_1     C     0.8174     0.3766     0.8468
A_0     C     0.3646     0.7028     0.1094
A_0     C     0.8564     0.9357     0.083
A_1     C     0.505     0.225     0.8141
A_0     C     0.3727     0.7745     0.7713
A_0     C     0.5227     0.158     0.1131
A_2     C     0.4547     0.6518     0.2935
A_0     C     0.1767     0.5897     0.2519
A_3     C     0.0018     0.8968     0.6812
A_1     C     0.709     0.6955     0.5033
A_1     C     0.9508     0.4831     0.823
A_2     C     0.6038     0.4879     0.7585
A_1     C     0.2838     0.2594     0.7051
A_3     C     0.0679     0.8104     0.9662
A_0     C     0.0613     0.5956     0.0164
A_2     C     0.9126     0.5773     0.8836
A_0     C     0.6213     0.29     0.6014
A_0     C     0.6582     0.5636     0.9259
A_3     C     0.2076     0.2157     0.4865
A_1     C     0.2821     0.7555     0.2831
A_3     C     0.8947     0.2966     0.6551
A_2     C     0.5889     0.4948     0.9098
A_3     C     0.987     0.2195     0.4061
A_3     C     0.1199     0.6852     0.6008
A_3     C     0.6822     0.9578     0.2155
A_2     C     0.4033     0.6759     0.9994
A_1     C     0.4026     0.2545     0.1162
A_3     C     0.978     0.8793     0.7828
A_2     C     0.6923     0.7068     0.5967
A_2     C     0.9655     0.2807     0.2567
A_3     C     0.632     0.4393     0.9217
A_1     C     0.8518     0.3853     0.4581
A_1     C     0.4305     0.5318     0.2933
A_0     C     0.028     0.913     0.8632
A_1     C     0.6974     0.2855     0.6949
A_1     C     0.052     0.8552     0.6462
A_2     C     0.3781     0.3012     0.5808
A_3     C     0.8076     0.0164     0.7995
A_0     C     0.3462     0.1481     0.6155
A_2     C     0.6773     0.3724     0.0795
A_3     C     0.9842     0.0303     0.3665
A_3     C     0.3002     0.6832     0.4995
A_0     C     0.2201     0.3715     0.1184
A_1     C     0.0278     0.6914     0.6251
A_3     C     0.5595     0.3271     0.2223
A_1     C     0.1903     0.402     0.5338
A_0     C     0.1981     0.7243     0.9622
A_2     C     0.9784     0.8767     0.5231
A_2     C     0.9011     0.5995     0.4794
A_3     C     0.9664     0.827     0.5379
A_1     C     0.4946     0.0132     0.7853
A_0     C     0.8382     0.5083     0.0714
A_1     C     0.1874     0.1991     0.5898
A_1     C     0.5247     0.9773     0.9052
A_2     C     0.7244     0.5725     0.9005
A_3     C     0.9166     0.2161     0.3752
A_0     C     0.6129     0.8948     0.7526
A_0     C     0.8575     0.3079     0.3264
A_2     C     0.0315     0.52     0.2311
A_1     C     0.857     0.4099     0.3431
A_2     C     0.7134     0.5157     0.232
A_3     C     0.4861     0.0636     0.064
A_2     C     0.1196     0.7979     0.5963
A_2     C     0.4251     0.7126     0.5009
A_2     C     0.1879     0.4453     0.7579
A_1     C     0.5736     0.5669     0.9646
A_0     C     0.5124     0.5335     0.7106
A_2     C     0.627     0.9961     0.0253
A_2     C     0.2237     0.2748     0.7677
A_1     C     0.1549     0.5872     0.3079
A_2     C     0.7491     0.857     0.1933
A_3     C     0.9356     0.3135     0.4506
A_3     C     0.9268     0.185     0.8132
A_2     C     0.1652     0.5709     0.0649
A_3     C     0.8939     0.0075     0.7804
A_2     C     0.8931     0.815     0.4339
A_1     C     0.498     0.0391     0.6336
A_2     C     0.8719     0.1061     0.1309
A_1     C     0.8682     0.2524     0.0798
A_0     C     0.7845     0.7938     0.8354
A_0     C     0.7812     0.0138     0.622
A_3     C     0.7275     0.4107     0.6324
A_1     C     0.4316     0.6657     0.3869
A_3     C     0.5058     0.1959     0.738
A_3     C     0.4024     0.3984     0.6462
A_2     C     0.4018     0.6109     0.576
A_0     C     0.7507     0.2086     0.4732
A_0     C     0.45     0.0739     0.9035
A_1     C     0.073     0.968     0.7281
A_1     C     0.7555     0.1029     0.9201
A_3     C     0.0397     0.5555     0.867
A_1     C     0.7044     0.9791     0.6141
A_0     C     0.8807     0.573     0.7693
A_0     C     0.4109     0.7691     0.2167
A_0     C     0.6704     0.6167     0.5654
A_2     C     0.5707     0.9912     0.5645
A_1     C     0.5196     0.7147     0.1265
A_3     C     0.6667     0.5007     0.8878
A_1     C     0.5301     0.4836     0.5401
A_0     C     0.9747     0.3885     0.5167
A_1     C     0.0509     0.5782     0.9416
A_1     C     0.0918     0.3803     0.2514
A_2     C     0.8594     0.9898     0.7767
A_0     C     0.0688     0.5165     0.2422
A_2     C     0.5328     0.9349     0.4873
A_2     C     0.2042     0.2271     0.5509
A_1     C     0.2128     0.3201     0.6098
A_3     C     0.3958     0.3572     0.8234
A_2     C     0.8423     0.0202     0.808
A_2     C     0.122     0.9198     0.4547
A_1     C     0.48     0.0912     0.2784
A_2     C     0.3891     0.5551     0.752
A_1     C     0.5304     0.835     0.457
A_2     C     0.8165     0.2089     0.2165
A_0     C     0.0032     0.4679     0.4884
A_1     C     0.2599     0.3878     0.0737
A_2     C     0.8471     0.9243     0.6315
A_2     C     0.7967     0.586     0.4503
A_2     C     0.4923     0.8949     0.623
A_2     C     0.4153     0.2995     0.5687
A_3     C     0.6501     0.8883     0.7915
A_0     C     0.4496     0.3621     0.269
A_3     C     0.4019     0.9506     0.9196
A_2     C     0.5598     0.4832     0.7563
A_2     C     0.0266     0.0791     0.6101
A_2     C     0.375     0.9025     0.1895
A_2     C     0.5905     0.6975     0.0891
A_0     C     0.2873     0.234     0.4253
A_3     C     0.7545     0.3071     0.8609
A_1     C     0.7367     0.7438     0.2048
A_2     C     0.5993     0.2929     0.2223
A_0     C     0.7583     0.3778     0.3301
A_2     C     0.3288     0.6425     0.1449
A_0     C     0.1326     0.3406     0.6992
A_3     C     0.0444     0.8535     0.3589
A_2     C     0.7732     0.7684     0.8202
A_0     C     0.6367     0.2322     0.1331
A_3     C     0.4612     0.9698     0.7502
A_0     C     0.1825     0.1942     0.0458
A_1     C     0.8114     0.4341     0.4535
A_2     C     0.3817     0.3154     0.1742
A_0     C     0.5081     0.4387     0.4418
A_0     C     0.4652     0.0639     0.8138
A_0     C     0.2534     0.1388     0.9877
A_3     C     0.8773     0.1931     0.7562
A_2     C     0.3661     0.2029     0.6277
A_1     C     0.3103     0.9482     0.8318
A_2     C     0.6579     0.9677     0.7385
A_3     C     0.1562     0.8254     0.7756
A_1     C     0.5926     0.0278     0.6285
A_1     C     0.614     0.9563     0.8859
A_0     C     0.2855     0.6855     0.8007
A_1     C     0.2112     0.2191     0.2038
A_3     C     0.5507     0.6701     0.9506
A_0     C     0.1696     0.6655     0.766
A_3     C     0.004     0.1766     0.6111
A_2     C     0.5749     0.4195     0.1266
A_3     C     0.8109     0.2074     0.0325
A_3     C     0.4023     0.4268     0.5726
A_1     C     0.5253     0.364     0.4754
A_0     C     0.2545     0.4089     0.2305
A_3     C     0.9971     0.1055     0.1448
A_3     C     0.4791     0.5567     0.1373
A_1     C     0.7734     0.3437     0.5716
A_0     C     0.428     0.8878     0.6008
A_3     C     0.0472     0.8801     0.6349
A_3     C     0.6803     0.0943     0.9043
A_1     C     0.2067     0.6266     0.7758
A_1     C     0.334     0.263     0.4324
A_3     C     0.243     0.9127     0.9543
A_1     C     0.21     0.8759     0.8523
A_2     C     0.1019     0.4577     0.8983
A_2     C     0.8654     0.2633     0.9861
A_0     C     0.6004     0.9116     0.2414
A_1     C     0.5186     0.2614     0.5377
A_2     C     0.066     0.3863     0.8915
A_0     C     0.321     0.4048     0.4004
A_3     C     0.5841     0.4869     0.2639
A_0     C     0.6547     0.0835     0.4708
A_2     C     0.8293     0.3064     0.1702
A_3     C     0.6741     0.1726     0.181
A_0     C     0.7438     0.4373     0.9223
A_2     C     0.3359     0.7949     0.7895
A_2     C     0.5304     0.1267     0.6286
A_2     C     0.3358     0.6657     0.8391
A_2     C     0.7476     0.1566     0.0922
A_1     C     0.6318     0.7273     0.6976
A_1     C     0.0028     0.0121     0.3081
A_2     C     0.9864     0.4405     0.8986
A_3     C     0.5158     0.3297     0.6803
A_0     C     0.7242     0.6511     0.6364
A_3     C     0.9048     0.2811     0.9329
A_1     C     0.6347     0.0705     0.0052
A_3     C     0.7293     0.7024     0.1941
A_0     C     0.4522     0.5208     0.2216
A_2     C     0.8568     0.3094     0.3458
A_1     C     0.9944     0.5609     0.1301
A_0     C     0.1919     0.9402     0.1451
A_2     C     0.3364     0.5645     0.1402
A_1     C     0.3196     0.0338     0.4995
A_2     C     0.6896     0.0723     0.4085
A_2     C     0.0853     0.5831     0.4995
A_2     C     0.6741     0.0575     0.6958
A_3     C     0.0817     0.2779     0.9092
A_0     C     0.4048     0.0809     0.8262
A_0     C     0.0949     0.9731     0.8015
A_2     C     0.8634     0.6583     0.3401
A_3     C     0.1704     0.0901     0.4635
A_3     C     0.3534     0.4185     0.5607
A_2     C     0.1939     0.2499     0.8124
A_3     C     0.2847     0.5544     0.3562
A_1     C     0.5864     0.9356     0.8532
A_1     C     0.6097     0.6233     0.7369
A_3     C     0.2688     0.6885     0.0727
A_0     C     0.6659     0.0703     0.2374
A_3     C     0.0344     0.2453     0.1687
A_0     C     0.3234     0.3571     0.4228
A_0     C     0.959     0.2916     0.1271
A_1     C     0.689     0.9017     0.1177
A_2     C     0.1217     0.2319     0.4152
A_0     C     0.9847     0.4246     0.1775
A_0     C     0.957     0.0483     0.8115
A_1     C     0.3246     0.4783     0.5989
A_1     C     0.5204     0.8788     0.5992
A_0     C     0.7733     0.2555     0.7347
A_0     C     0.9698     0.1411     0.0633
A_2     C     0.9549     0.583     0.8554
A_2     C     0.5255     0.8719     0.1781
A_1     C     0.1196     0.1922     0.1899
A_0     C     0.8316     0.9994     0.8027
A_3     C     0.3512     0.694     0.9272
A_1     C     0.018     0.1692     0.7368
A_2     C     0.4485     0.7553     0.7902
A_0     C     0.3785     0.3083     0.5841
A_3     C     0.9748     0.6523     0.4602
A_2     C     0.9964     0.7765     0.0731
A_3     C     0.5169     0.6951     0.4177
A_3     C     0.0984     0.1617     0.1825
A_1     C     0.3515     0.0436     0.4922
A_3     C     0.1605     0.3075     0.6618
A_0     C     0.033     0.4069     0.8621
A_2     C     0.3908     0.5685     0.7459
A_0     C     0.1608     0.9617     0.779
A_0     C     0.3889     0.5689     0.3247
A_0     C     0.1991     0.8999     0.7799
A_2     C     0.6952     0.7575     0.5566
A_2     C     0.4797     0.3723     0.4682
A_2     C     0.1501     0.954     0.9504
A_0     C     0.1368     0.4296     0.8771
A_3     C     0.8128     0.7475     0.1342
A_2     C     0.789     0.1008     0.2205
A_0     C     0.6826     0.1462     0.7688
A_3     C     0.8468     0.0656     0.0009
A_2     C     0.3598     0.28     0.3765
A_3     C     0.0771     0.8638     0.0203
A_3     C     0.228     0.0482     0.3208
A_0     C     0.783     0.5852     0.3882
A_3     C     0.4106     0.1945     0.3445
A_1     C     0.619     0.9902     0.7382
A_3     C     0.8862     0.0757     0.3868
A_0     C     0.2483     0.338     0.9713
A_1     C     0.0164     0.0526     0.3778
A_1     C     0.9461     0.5114     0.46
A_3     C     0.0261     0.1277     0.0558
A_3     C     0.1017     0.9021     0.2251
A_3     C     0.8151     0.607     0.1558
A_2     C     0.7164     0.738     0.2223
A_3     C     0.1067     0.0389     0.2229
A_3     C     0.9374     0.8833     0.0667
A_0     C     0.1682     0.0595     0.88
A_1     C     0.829     0.6936     0.8343
A_3     C     0.2228     0.4037     0.4744
A_1     C     0.0814     0.8833     0.1018
A_3     C     0.9308     0.8716     0.0917
A_0     C     0.4275     0.8212     0.601
A_3     C     0.2253     0.4134     0.9231
A_3     C     0.1878     0.5239     0.3406
A_3     C     0.067     0.1098     0.6825
A_0     C     0.5783     0.0178     0.1909
A_0     C     0.092     0.4602     0.8211
A_0     C     0.9833     0.2958     0.3405
A_0     C     0.2168     0.7136     0.4169
A_2     C     0.7051     0.6457     0.9945
A_1     C     0.7563     0.2296     0.6287
A_3     C     0.5237     0.8171     0.1209
A_2     C     0.3824     0.9698     0.2117
A_2     C     0.8108     0.129     0.634
A_1     C     0.7268     0.9128     0.9197
A_2     C     0.0208     0.2045     0.8919
A_1     C     0.9424     0.5064     0.7029
A_0     C     0.2805     0.5738     0.5693
A_3     C     0.1868     0.414     0.6066
A_1     C     0.148     0.9093     0.0798
A_0     C     0.4879     0.6034     0.5295
A_2     C     0.7971     0.908     0.9115
A_1     C     0.8239     0.4823     0.1795
A_0     C     0.6735     0.6361     0.9532
A_2     C     0.9915     0.5466     0.2263
A_2     C     0.9374     0.276     0.18
A_0     C     0.3917     0.1282     0.0743
A_0     C     0.1795     0.1245     0.8271
A_1     C     0.1356     0.5453     0.9488
A_2     C     0.0217     0.7918     0.5886
A_3     C     0.9486     0.616     0.4455
A_1     C     0.0971     0.7811     0.7708
A_2     C     0.2681     0.3862     0.168
A_3     C     0.6287     0.6771     0.543
A_1     C     0.3032     0.2509     0.7672
A_1     C     0.3096     0.3544     0.6935
A_1     C     0.0709     0.4426     0.549
A_3     C     0.5113     0.0347     0.4043
A_3     C     0.7192     0.2569     0.6938
A_0     C     0.7182     0.7349     0.7987
A_1     C     0.8268     0.2875     0.419
A_1     C     0.8997     0.893     0.2291
A_0     C     0.9551     0.8281     0.9096
A_0     C     0.8968     0.3161     0.5143
A_3     C     0.7025     0.3392     0.7668
A_2     C     0.5958     0.7972     0.3837
A_3     C     0.7933     0.3707     0.9052
A_1     C     0.9538     0.4356     0.766
A_3     C     0.9172     0.7442     0.9106
A_2     C     0.8055     0.8088     0.3685
A_2     C     0.4101     0.6319     0.1973
A_1     C     0.6551     0.5234     0.236
A_1     C     0.1611     0.4615     0.3492
A_3     C     0.6801     0.4532     0.1251
A_0     C     0.6994     0.5002     0.8889
A_3     C     0.793     0.6734     0.4447
A_0     C     0.1658     0.4639     0.1218
A_1     C     0.2866     0.1127     0.962
A_2     C     0.4274     0.7627     0.4391
A_2     C     0.0353     0.2415     0.9179
A_1     C     0.0125     0.9238     0.4759
A_3     C     0.1967     0.5294     0.2098
A_3     C     0.8764     0.4753     0.8095
A_2     C     0.7249     0.7567     0.1726
A_3     C     0.7203     0.0142     0.6597
A_3     C     0.9339     0.105     0.5655
A_0     C     0.0435     0.4686     0.8664
A_2     C     0.6232     0.9856     0.5194
A_0     C     0.1144     0.6692     0.6333
A_0     C     0.2981     0.3914     0.7654
A_3     C     0.0433     0.9233     0.9608
A_1     C     0.1194     0.25     0.6862
A_1     C     0.6298     0.123     0.6663
A_2     C     0.7999     0.86     0.0227
A_1     C     0.1004     0.0381     0.0613
A_2     C     0.0097     0.0112     0.3924
A_3     C     0.4355     0.1625     0.6764
A_1     C     0.1784     0.6233     0.1122
A_3     C     0.9209     0.9425     0.9749
A_0     C     0.9903     0.8519     0.0516
A_1     C     0.4138     0.5693     0.1162
A_0     C     0.7481     0.9727     0.5388
A_0     C     0.8051     0.2688     0.9761
A_0     C     0.1896     0.4916     0.7112
A_1     C     0.7473     0.8377     0.6468
A_2     C     0.7173     0.0683     0.2055
A_1     C     0.2254     0.9177     0.2584
A_1     C     0.5203     0.5043     0.0585
A_1     C     0.4941     0.8218     0.2912
A_0     C     0.5587     0.6892     0.5166
A_3     C     0.4684     0.1423     0.6216
A_1     C     0.1989     0.536     0.1223
A_1     C     0.3379     0.8111     0.9624
A_3     C     0.0019     0.7463     0.9396
A_1     C     0.2183     0.2169     0.5632
A_0     C     0.15     0.9274     0.6742
A_0     C     0.4509     0.5524     0.5012
A_2     C     0.5356     0.3684     0.187
A_1     C     0.6692     0.9256     0.9507
A_3     C     0.624     0.5172     0.2027
A_0     C     0.6409     0.6875     0.0519
A_3     C     0.6398     0.4413     0.4106
A_0     C     0.4276     0.4844     0.96
A_0     C     0.9863     0.8083     0.7154
A_1     C     0.6871     0.6477     0.0299
A_2     C     0.0058     0.2841     0.8281
A_3     C     0.7655     0.4986     0.9685
A_0     C     0.5978     0.8064     0.7673
A_1     C     0.8027     0.8287     0.98
A_1     C     0.3352     0.0408     0.2812
A_3     C     0.8065     0.4475     0.1962
A_1     C     0.9781     0.0606     0.8064
A_0     C     0.3594     0.3034     0.8697
A_0     C     0.5546     0.7203     0.914
A_3     C     0.5738     0.5901     0.4664
A_2     C     0.301     0.0571     0.4633
A_0     C     0.2567     0.3621     0.7915
A_0     C     0.1986     0.6899     0.1204
A_1     C     0.4198     0.4146     0.55
A_1     C     0.2218     0.8752     0.8757
A_0     C     0.4905     0.7024     0.7628
A_3     C     0.8359     0.5088     0.6431
A_1     C     0.9148     0.2654     0.5435
A_2     C     0.0477     0.7363     0.3357
A_3     C     0.4456     0.7334     0.9805
A_1     C     0.2734     0.9953     0.0407
A_1     C     0.3371     0.1431     0.4601
A_1     C     0.7936     0.8449     0.5897
A_0     C     0.4971     0.7595     0.7442
A_3     C     0.8457     0.9402     0.4616
A_1     C     0.6001     0.6289     0.1539
A_2     C     0.0687     0.4305     0.9648
A_3     C     0.6254     0.9614     0.0543
A_1     C     0.038     0.6159     0.9239
A_0     C     0.7763     0.4122     0.7245
A_1     C     0.9365     0.062     0.0567
A_1     C     0.765     0.5093     0.0631
A_1     C     0.8815     0.8272     0.1715
