MAT-78

loop_
_symmetry_equiv_pos_as_xyz
  x,y,z
_cell_length_a          33.5457
_cell_length_b          23.7565
_cell_length_c          41.4367
_cell_angle_alpha       90.0000
_cell_angle_beta        90.0000
_cell_angle_gamma       90.0000
loop_
_atom_site_label
_atom_site_type_symbol
_atom_site_fract_x
_atom_site_fract_y
_atom_site_fract_z
A_3     C     0.4628     0.1674     0.0832
A_0     C     0.7052     0.2132     0.4142
A_3     C     0.3877     0.366     0.921
A_0     C     0.0491     0.7287     0.7652
A_1     C     0.0531     0.0251     0.962
A_1     C     0.8599     0.0743     0.6555
A_3     C     0.359     0.535     0.4687
A_3     C     0.5491     0.1834     0.1149
A_3     C     0.0969     0.52     0.6426
A_3     C     0.8054     0.7599     0.7688
A_3     C     0.2488     0.4387     0.3032
A_3     C     0.0856     0.1965     0.0195
A_3     C     0.5916     0.0968     0.4773
A_3     C     0.095     0.5656     0.1978
A_3     C     0.7594     0.474     0.092
A_3     C     0.3249     0.5225     0.9693
A_3     C     0.2975     0.7594     0.5953
A_3     C     0.1937     0.6128     0.2847
A_3     C     0.1184     0.3347     0.4331
A_3     C     0.8457     0.5052     0.7674
A_3     C     0.3516     0.6107     0.3898
A_3     C     0.8412     0.0936     0.651
A_3     C     0.441     0.3753     0.123
A_3     C     0.871     0.3669     0.1232
A_3     C     0.6699     0.6913     0.2104
A_3     C     0.5007     0.4013     0.6267
A_3     C     0.6662     0.7947     0.486
A_3     C     0.5901     0.7942     0.8961
A_3     C     0.8189     0.0816     0.1495
A_3     C     0.0402     0.1516     0.6191
A_3     C     0.5024     0.5845     0.4311
A_3     C     0.4118     0.0681     0.7763
A_3     C     0.5549     0.6025     0.6119
A_3     C     0.2878     0.2741     0.1253
A_3     C     0.8134     0.5626     0.4984
A_3     C     0.4527     0.8517     0.216
A_3     C     0.4754     0.0808     0.7346
A_3     C     0.6274     0.603     0.9185
A_3     C     0.3379     0.9421     0.5153
A_3     C     0.537     0.7277     0.2763
A_3     C     0.476     0.774     0.9596
A_3     C     0.5866     0.7054     0.9689
A_3     C     0.6284     0.0678     0.0871
A_3     C     0.6683     0.0337     0.1921
A_3     C     0.9604     0.9485     0.775
A_3     C     0.1073     0.4779     0.9034
A_3     C     0.6138     0.7214     0.5445
A_3     C     0.7403     0.5487     0.2953
A_3     C     0.8629     0.3365     0.5276
A_3     C     0.5285     0.9048     0.924
A_3     C     0.8802     0.44     0.0621
A_3     C     0.0953     0.0412     0.7615
A_3     C     0.4108     0.5718     0.9203
A_3     C     0.6333     0.2046     0.468
A_3     C     0.4879     0.985     0.3878
A_3     C     0.8882     0.5309     0.8897
A_3     C     0.2506     0.9727     0.1861
A_3     C     0.0312     0.4299     0.0932
A_3     C     0.8788     0.201     0.3452
A_3     C     0.7579     0.7396     0.5007
A_3     C     0.144     0.9511     0.6158
A_3     C     0.0739     0.6852     0.7151
A_3     C     0.805     0.193     0.3837
A_3     C     0.2277     0.9158     0.2671
A_3     C     0.7511     0.5891     0.1844
A_3     C     0.6653     0.2684     0.2705
A_3     C     0.2442     0.2183     0.8599
A_3     C     0.2826     0.6369     0.4626
A_3     C     0.6302     0.4921     0.2475
A_3     C     0.2377     0.4931     0.3361
A_3     C     0.3819     0.6499     0.7487
A_3     C     0.2728     0.6777     0.5592
A_3     C     0.4356     0.6362     0.8738
A_3     C     0.6629     0.9507     0.1153
A_3     C     0.719     0.8679     0.7316
A_3     C     0.0229     0.6628     0.4716
A_3     C     0.3756     0.6962     0.9422
A_3     C     0.8524     0.1648     0.195
A_3     C     0.5509     0.8014     0.4757
A_3     C     0.6698     0.9818     0.2134
A_3     C     0.3443     0.4509     0.9962
A_3     C     0.0487     0.0163     0.1024
A_3     C     0.9025     0.8166     0.1097
A_3     C     0.5109     0.09     0.6775
A_3     C     0.1602     0.514     0.101
A_3     C     0.0673     0.0798     0.4415
A_3     C     0.8565     0.226     0.9262
A_3     C     0.2604     0.2701     0.7681
A_3     C     0.934     0.4171     0.2982
A_3     C     0.2708     0.655     0.862
A_3     C     0.6929     0.3829     0.3679
A_3     C     0.7725     0.8404     0.3283
A_3     C     0.4079     0.1164     0.5619
A_3     C     0.9652     0.9548     0.8048
A_3     C     0.5841     0.6915     0.9166
A_3     C     0.2385     0.3474     0.3778
A_3     C     0.7466     0.1403     0.9526
A_3     C     0.073     0.445     0.4855
A_3     C     0.9977     0.0423     0.2135
A_3     C     0.9328     0.394     0.4803
A_3     C     0.8816     0.4183     0.5131
A_3     C     0.2907     0.363     0.6228
A_3     C     0.2127     0.5444     0.8918
A_3     C     0.6284     0.9791     0.6182
A_3     C     0.1219     0.5679     0.665
A_3     C     0.4052     0.3609     0.8892
A_3     C     0.0914     0.9456     0.8888
A_3     C     0.6239     0.8601     0.4987
A_3     C     0.1738     0.5023     0.6636
A_3     C     0.6738     0.7767     0.2709
A_3     C     0.1523     0.8212     0.9604
A_3     C     0.581     0.7584     0.8347
A_3     C     0.0496     0.4711     0.7081
A_3     C     0.9606     0.3767     0.6017
A_3     C     0.9571     0.3169     0.4046
A_3     C     0.4819     0.7534     0.8447
A_3     C     0.7595     0.5965     0.3768
A_3     C     0.8518     0.7975     0.9671
A_3     C     0.1237     0.2036     0.1039
A_3     C     0.4284     0.4638     0.6589
A_3     C     0.2229     0.2657     0.8684
A_3     C     0.2407     0.2427     0.8339
A_3     C     0.3618     0.3024     0.7175
A_3     C     0.0159     0.3711     0.6925
A_3     C     0.2046     0.4472     0.671
A_3     C     0.63     0.3809     0.7771
A_3     C     0.3805     0.9327     0.4285
A_3     C     0.7334     0.918     0.8221
A_3     C     0.919     0.8079     0.1397
A_3     C     0.5508     0.2972     0.1647
A_3     C     0.629     0.3351     0.382
A_3     C     0.689     0.6703     0.9825
A_3     C     0.7588     0.2715     0.3747
A_3     C     0.8664     0.1259     0.4026
A_3     C     0.5781     0.8665     0.7734
A_3     C     0.2919     0.1911     0.1105
A_3     C     0.5032     0.5557     0.0793
A_3     C     0.5345     0.5001     0.2277
A_3     C     0.9539     0.8242     0.6958
A_3     C     0.5869     0.6614     0.5006
A_3     C     0.4404     0.1964     0.9405
A_3     C     0.5111     0.0562     0.3394
A_3     C     0.3145     0.6775     0.3732
A_3     C     0.6086     0.3949     0.4864
A_3     C     0.8858     0.1586     0.0547
A_3     C     0.7694     0.3878     0.4996
A_3     C     0.755     0.8849     0.8647
A_3     C     0.4776     0.1504     0.6661
A_3     C     0.8476     0.4808     0.356
A_3     C     0.0437     0.6459     0.6194
A_3     C     0.1244     0.3394     0.5886
A_3     C     0.1798     0.1776     0.3357
A_3     C     0.2618     0.5044     0.207
A_3     C     0.6024     0.0507     0.7534
A_3     C     0.9645     0.7592     0.7832
A_3     C     0.591     0.6053     0.9473
A_3     C     0.6118     0.2754     0.5143
A_3     C     0.7642     0.1577     0.222
A_3     C     0.5204     0.3525     0.7989
A_3     C     0.3657     0.9558     0.704
A_3     C     0.4585     0.8462     0.0124
A_3     C     0.7444     0.1577     0.7692
A_3     C     0.6154     0.5847     0.31
A_3     C     0.7192     0.1788     0.6561
A_3     C     0.7123     0.6686     0.3414
A_3     C     0.5701     0.709     0.7908
A_3     C     0.7571     0.7594     0.8343
A_3     C     0.829     0.3422     0.6369
A_3     C     0.4214     0.5143     0.141
A_3     C     0.1727     0.3769     0.2855
A_3     C     0.9011     0.1169     0.217
A_3     C     0.6497     0.0271     0.7009
A_3     C     0.1039     0.1959     0.6658
A_3     C     0.2915     0.6625     0.7246
A_3     C     0.9989     0.3658     0.7175
A_3     C     0.2521     0.5464     0.5623
A_3     C     0.5838     0.0815     0.1417
A_3     C     0.1748     0.4933     0.4223
A_3     C     0.059     0.7741     0.915
A_3     C     0.7842     0.1725     0.701
A_3     C     0.9087     0.5503     0.1784
A_3     C     0.2926     0.5665     0.4183
A_3     C     0.777     0.484     0.4443
A_3     C     0.4547     0.4734     0.5991
A_3     C     0.5044     0.0174     0.0555
A_3     C     0.1474     0.4794     0.1713
A_3     C     0.4221     0.2422     0.7055
A_3     C     0.8357     0.927     0.7762
A_3     C     0.9259     0.5346     0.1415
A_3     C     0.0144     0.7231     0.1495
A_3     C     0.9872     0.5229     0.8934
A_3     C     0.0321     0.8962     0.1091
A_3     C     0.6482     0.2533     0.2268
A_3     C     0.5542     0.0722     0.0198
A_3     C     0.8151     0.5202     0.0915
A_3     C     0.4623     0.183     0.9543
A_3     C     0.7688     0.4035     0.8516
A_3     C     0.615     0.2664     0.2656
A_3     C     0.1903     0.5693     0.2056
A_3     C     0.2838     0.2424     0.8968
A_3     C     0.1535     0.542     0.7667
A_3     C     0.6579     0.002     0.1169
A_3     C     0.5973     0.4195     0.4248
A_3     C     0.8156     0.4501     0.6191
A_3     C     0.5111     0.077     0.1131
A_3     C     0.049     0.5483     0.5724
A_3     C     0.7904     0.0828     0.5353
A_3     C     0.4486     0.7774     0.6333
A_3     C     0.0375     0.9919     0.738
