MAT-72

loop_
_symmetry_equiv_pos_as_xyz
  x,y,z
_cell_length_a          46.5736
_cell_length_b          24.861
_cell_length_c          25.6938
_cell_angle_alpha       90.0000
_cell_angle_beta        90.0000
_cell_angle_gamma       90.0000
loop_
_atom_site_label
_atom_site_type_symbol
_atom_site_fract_x
_atom_site_fract_y
_atom_site_fract_z
A_3     C     0.8677     0.9825     0.494
A_0     C     0.0532     0.6914     0.7654
A_1     C     0.6004     0.3944     0.1272
A_2     C     0.3834     0.2185     0.8323
A_1     C     0.2896     0.8838     0.4335
A_1     C     0.6574     0.86     0.4285
A_0     C     0.1971     0.7615     0.6954
A_1     C     0.6513     0.5884     0.5651
A_2     C     0.8529     0.3766     0.5979
A_3     C     0.9234     0.2546     0.7654
A_2     C     0.1177     0.3627     0.8527
A_0     C     0.5324     0.5704     0.7546
A_2     C     0.3946     0.5082     0.4686
A_0     C     0.502     0.6286     0.0404
A_2     C     0.9675     0.6518     0.4711
A_1     C     0.2509     0.614     0.5108
A_0     C     0.978     0.3622     0.0963
A_3     C     0.4809     0.9554     0.1416
A_3     C     0.4724     0.1872     0.424
A_1     C     0.2186     0.7657     0.2424
A_3     C     0.5391     0.6741     0.6883
A_3     C     0.1944     0.9758     0.5118
A_2     C     0.8469     0.4707     0.0822
A_2     C     0.6622     0.2875     0.4019
A_3     C     0.5238     0.589     0.3639
A_3     C     0.8113     0.5621     0.0413
A_2     C     0.8457     0.8955     0.4087
A_1     C     0.0857     0.3093     0.973
A_3     C     0.4155     0.9496     0.6846
A_3     C     0.055     0.353     0.3891
A_0     C     0.82     0.0981     0.1346
A_1     C     0.1865     0.9345     0.98
A_2     C     0.3774     0.7538     0.0329
A_0     C     0.5406     0.1783     0.8388
A_2     C     0.7828     0.6877     0.2214
A_2     C     0.8822     0.9127     0.8788
A_0     C     0.7222     0.429     0.095
A_2     C     0.0205     0.5523     0.6896
A_1     C     0.6469     0.1903     0.3966
A_0     C     0.8626     0.0204     0.6355
A_0     C     0.0443     0.2737     0.7956
A_2     C     0.0953     0.7722     0.5134
A_3     C     0.6687     0.3192     0.4588
A_2     C     0.7316     0.603     0.9585
A_0     C     0.4887     0.2783     0.6498
A_1     C     0.0389     0.4321     0.7031
A_0     C     0.4125     0.8606     0.5712
A_3     C     0.9047     0.6444     0.0562
A_3     C     0.2312     0.9438     0.3508
A_1     C     0.5865     0.7803     0.5347
A_2     C     0.7285     0.2141     0.1505
A_3     C     0.3918     0.3851     0.1003
A_1     C     0.9169     0.8302     0.022
A_2     C     0.1767     0.8212     0.5945
A_1     C     0.2336     0.3097     0.6759
A_0     C     0.0502     0.9217     0.0678
A_0     C     0.5757     0.6032     0.5189
A_3     C     0.2809     0.2781     0.738
A_2     C     0.0579     0.9161     0.7117
A_2     C     0.8923     0.7252     0.5833
A_0     C     0.6752     0.1321     0.5199
A_0     C     0.9426     0.3987     0.8223
A_2     C     0.5746     0.4637     0.301
A_2     C     0.2447     0.4793     0.4608
A_2     C     0.1543     0.6876     0.5402
A_2     C     0.6146     0.9896     0.0218
A_1     C     0.2426     0.8158     0.1857
A_2     C     0.5191     0.9569     0.7684
A_2     C     0.7206     0.3342     0.8867
A_1     C     0.9779     0.9031     0.9794
A_1     C     0.866     0.607     0.5236
A_2     C     0.6513     0.8112     0.5327
A_3     C     0.7486     0.3661     0.5088
A_2     C     0.4926     0.1138     0.9377
A_0     C     0.5607     0.8707     0.2706
A_2     C     0.7103     0.5138     0.501
A_1     C     0.7285     0.6661     0.2231
A_1     C     0.2163     0.3432     0.1523
A_3     C     0.9096     0.1546     0.9068
A_2     C     0.8185     0.4234     0.1754
A_1     C     0.9173     0.0571     0.5483
A_2     C     0.6563     0.7237     0.7285
A_2     C     0.0423     0.459     0.5396
A_2     C     0.186     0.3426     0.0234
A_0     C     0.8834     0.3661     0.3452
A_2     C     0.839     0.0211     0.8729
A_3     C     0.8382     0.1266     0.7296
A_0     C     0.7864     0.9793     0.4104
A_1     C     0.0596     0.6258     0.9427
A_2     C     0.5682     0.4596     0.1449
A_0     C     0.0921     0.5615     0.7427
A_0     C     0.6451     0.0142     0.9998
A_2     C     0.9282     0.5832     0.4594
A_0     C     0.5851     0.6526     0.169
A_1     C     0.69     0.5664     0.8733
A_2     C     0.9083     0.1856     0.9709
A_0     C     0.6654     0.9397     0.8637
A_3     C     0.401     0.1415     0.0011
A_3     C     0.7106     0.324     0.6865
A_2     C     0.5759     0.4116     0.2797
A_0     C     0.9286     0.8439     0.2004
A_1     C     0.2419     0.8416     0.369
A_2     C     0.3281     0.8218     0.363
A_2     C     0.9915     0.8373     0.9271
A_1     C     0.8369     0.345     0.7082
A_1     C     0.0096     0.0105     0.2918
A_1     C     0.382     0.4875     0.027
A_2     C     0.8385     0.0435     0.1512
A_2     C     0.1985     0.4803     0.3479
A_2     C     0.7326     0.7801     0.0498
A_3     C     0.6112     0.0074     0.7175
A_3     C     0.0797     0.4042     0.3993
A_0     C     0.415     0.8865     0.6779
A_0     C     0.9984     0.5681     0.9691
A_2     C     0.3927     0.4479     0.9061
A_2     C     0.9069     0.4466     0.1357
A_2     C     0.0951     0.7626     0.7511
A_1     C     0.7911     0.1917     0.5277
A_2     C     0.779     0.5259     0.6181
A_1     C     0.7106     0.6166     0.8976
A_1     C     0.675     0.3913     0.4842
A_0     C     0.1045     0.6781     0.4872
A_3     C     0.8982     0.857     0.8639
A_2     C     0.8882     0.8927     0.0602
A_3     C     0.4703     0.9963     0.1014
A_3     C     0.9052     0.584     0.5073
A_1     C     0.5661     0.7915     0.0773
A_3     C     0.5851     0.6272     0.1798
A_0     C     0.9603     0.1731     0.3103
A_2     C     0.3456     0.5334     0.5987
A_1     C     0.7673     0.1026     0.8232
A_1     C     0.0835     0.0005     0.1406
A_0     C     0.1827     0.175     0.7434
A_0     C     0.0432     0.2308     0.7093
A_0     C     0.8626     0.3849     0.1687
A_0     C     0.2229     0.0279     0.7428
A_2     C     0.0261     0.1683     0.6961
A_3     C     0.6683     0.4583     0.9105
A_0     C     0.8834     0.1333     0.6157
A_3     C     0.6052     0.8848     0.651
A_0     C     0.8838     0.0752     0.5806
A_3     C     0.8933     0.3422     0.4408
A_2     C     0.5851     0.8734     0.6796
A_1     C     0.5747     0.1393     0.7211
A_2     C     0.8139     0.1383     0.5199
A_0     C     0.978     0.6718     0.8901
A_1     C     0.1313     0.3328     0.7376
A_3     C     0.0166     0.209     0.0071
A_0     C     0.1703     0.4739     0.5322
A_1     C     0.5029     0.6677     0.402
A_3     C     0.9445     0.0258     0.732
A_0     C     0.6358     0.1606     0.8492
A_2     C     0.8463     0.8303     0.353
A_3     C     0.0733     0.0995     0.6519
A_3     C     0.4575     0.1297     0.5812
A_2     C     0.2892     0.6807     0.8021
A_1     C     0.9318     0.1066     0.069
A_1     C     0.5776     0.9831     0.318
A_2     C     0.1746     0.3736     0.3359
A_2     C     0.8303     0.6748     0.2607
A_3     C     0.522     0.185     0.7953
A_3     C     0.8148     0.0169     0.6644
A_2     C     0.0603     0.6298     0.7377
A_3     C     0.9031     0.8595     0.7367
A_1     C     0.8599     0.9708     0.3744
A_0     C     0.7911     0.4502     0.8638
A_0     C     0.8196     0.1088     0.2094
A_0     C     0.8092     0.8961     0.9471
A_3     C     0.5     0.1839     0.2209
A_3     C     0.9179     0.5124     0.8596
A_3     C     0.4471     0.7262     0.4993
A_3     C     0.1499     0.6785     0.8673
A_3     C     0.316     0.8793     0.6302
A_3     C     0.8842     0.0855     0.227
A_3     C     0.3352     0.7148     0.5265
A_3     C     0.4144     0.207     0.5737
A_3     C     0.4377     0.9608     0.086
A_3     C     0.054     0.4483     0.6415
A_3     C     0.4608     0.1735     0.1361
A_3     C     0.6451     0.1983     0.6959
A_3     C     0.8491     0.5667     0.3329
A_3     C     0.9861     0.563     0.2582
A_3     C     0.3114     0.8879     0.8122
A_3     C     0.1478     0.8039     0.988
A_3     C     0.2315     0.8907     0.8931
A_3     C     0.6992     0.8033     0.6026
A_3     C     0.7665     0.6627     0.361
A_3     C     0.2455     0.2654     0.5352
A_3     C     0.0755     0.7681     0.2956
A_3     C     0.3187     0.3777     0.5925
A_3     C     0.5191     0.4797     0.3838
A_3     C     0.6191     0.2295     0.7361
A_3     C     0.0797     0.3585     0.4119
A_3     C     0.4801     0.7529     0.9707
A_3     C     0.3958     0.1008     0.0187
A_3     C     0.4434     0.9072     0.7292
A_3     C     0.8187     0.5128     0.6912
A_3     C     0.4418     0.6     0.9662
A_3     C     0.0779     0.7416     0.8712
A_3     C     0.0075     0.5721     0.6477
A_3     C     0.0665     0.2496     0.6798
A_3     C     0.9345     0.5019     0.4728
A_3     C     0.6943     0.611     0.3442
A_3     C     0.7837     0.2194     0.3802
A_3     C     0.8451     0.6601     0.7166
A_3     C     0.0584     0.8652     0.8166
A_3     C     0.8521     0.5302     0.2777
A_3     C     0.2871     0.6271     0.0058
A_3     C     0.3916     0.7431     0.5039
A_3     C     0.3585     0.118     0.6029
A_3     C     0.9078     0.8835     0.8976
A_3     C     0.6568     0.8393     0.7315
A_3     C     0.1771     0.7599     0.0471
A_3     C     0.6387     0.1171     0.0486
A_3     C     0.8075     0.2278     0.0082
A_3     C     0.701     0.4135     0.6004
A_3     C     0.25     0.2221     0.9098
A_3     C     0.4177     0.1353     0.5168
A_3     C     0.1946     0.0656     0.2019
A_3     C     0.6083     0.157     0.8832
A_3     C     0.4959     0.9392     0.1378
A_3     C     0.6005     0.6758     0.1643
A_3     C     0.6952     0.341     0.6206
A_3     C     0.1729     0.8751     0.9602
A_3     C     0.6677     0.7489     0.1009
A_3     C     0.5513     0.9792     0.2511
A_3     C     0.1519     0.6227     0.5952
A_3     C     0.832     0.6787     0.523
A_3     C     0.4557     0.7135     0.3272
A_3     C     0.4055     0.1654     0.2839
A_3     C     0.531     0.7387     0.9577
A_3     C     0.8869     0.5323     0.1903
A_3     C     0.3218     0.1559     0.856
A_3     C     0.0533     0.5406     0.698
A_3     C     0.0668     0.5734     0.8889
A_3     C     0.9872     0.671     0.337
A_3     C     0.2074     0.0537     0.1936
A_3     C     0.5928     0.7426     0.2971
A_3     C     0.1886     0.1631     0.9938
A_3     C     0.198     0.614     0.4234
A_3     C     0.2956     0.9126     0.8239
A_3     C     0.5639     0.0997     0.2482
A_3     C     0.7095     0.3382     0.3353
A_3     C     0.2992     0.3824     0.2064
A_3     C     0.3714     0.8599     0.9889
A_3     C     0.4242     0.7514     0.7536
A_3     C     0.5223     0.3421     0.7125
A_3     C     0.4474     0.0197     0.1074
A_3     C     0.926     0.9937     0.6948
A_3     C     0.3042     0.4402     0.2717
A_3     C     0.4424     0.2783     0.1551
A_3     C     0.4289     0.1406     0.5225
A_3     C     0.3215     0.1023     0.7494
A_3     C     0.6597     0.2226     0.3518
A_3     C     0.7925     0.6416     0.5209
A_3     C     0.0245     0.3001     0.1126
A_3     C     0.2045     0.8799     0.2194
A_3     C     0.0648     0.6918     0.3642
A_3     C     0.0415     0.0568     0.4407
A_3     C     0.9529     0.2727     0.9451
A_3     C     0.2805     0.7052     0.0175
A_3     C     0.9474     0.1965     0.2418
A_3     C     0.4242     0.4525     0.9419
A_3     C     0.2284     0.8029     0.2235
A_3     C     0.0725     0.8413     0.058
A_3     C     0.699     0.0603     0.0042
A_3     C     0.9     0.5975     0.1884
A_3     C     0.6802     0.1054     0.2065
A_3     C     0.5285     0.2906     0.4328
A_3     C     0.4301     0.4151     0.7459
A_3     C     0.4546     0.324     0.7244
A_3     C     0.8818     0.036     0.3065
A_3     C     0.0369     0.2109     0.3589
A_3     C     0.6855     0.7747     0.6479
A_3     C     0.2023     0.3592     0.4323
A_3     C     0.7547     0.3655     0.1836
A_3     C     0.6533     0.0863     0.4484
A_3     C     0.9885     0.2087     0.8971
A_3     C     0.981     0.8228     0.3649
A_3     C     0.1923     0.6942     0.6237
A_3     C     0.6979     0.8813     0.2839
A_3     C     0.4729     0.4464     0.0554
A_3     C     0.6093     0.8036     0.3771
A_3     C     0.1898     0.3336     0.0435
A_3     C     0.0992     0.8931     0.452
A_3     C     0.2983     0.9934     0.4363
A_3     C     0.0978     0.5933     0.9424
A_3     C     0.3929     0.4394     0.6765
A_3     C     0.8973     0.8925     0.4398
A_3     C     0.3941     0.0884     0.1632
A_3     C     0.6021     0.477     0.9207
A_3     C     0.3191     0.864     0.1751
A_3     C     0.0005     0.8304     0.3199
A_3     C     0.8136     0.172     0.026
A_3     C     0.6885     0.1691     0.4167
A_3     C     0.2219     0.068     0.5021
A_3     C     0.6697     0.4096     0.8654
A_3     C     0.683     0.649     0.5838
A_3     C     0.7144     0.9383     0.4985
A_3     C     0.8542     0.5436     0.9225
A_3     C     0.2283     0.6274     0.8625
A_3     C     0.2169     0.9017     0.0187
A_3     C     0.0764     0.1625     0.3951
A_3     C     0.4052     0.1497     0.5287
A_3     C     0.3148     0.4273     0.4603
A_3     C     0.0622     0.4643     0.295
A_3     C     0.553     0.7193     0.3817
A_3     C     0.4022     0.765     0.5961
A_3     C     0.8603     0.3934     0.104
A_3     C     0.8602     0.6204     0.9709
A_3     C     0.253     0.9614     0.5635
A_3     C     0.7801     0.0342     0.1857
A_3     C     0.1849     0.2236     0.1979
A_3     C     0.7049     0.0299     0.5217
A_3     C     0.9033     0.1722     0.5234
A_3     C     0.8747     0.9476     0.0939
A_3     C     0.6835     0.1345     0.0723
A_3     C     0.6742     0.3609     0.528
A_3     C     0.5396     0.8518     0.1389
A_3     C     0.4915     0.3328     0.8162
A_3     C     0.6663     0.9217     0.0842
A_3     C     0.1132     0.2301     0.1596
A_3     C     0.5067     0.2634     0.5341
A_3     C     0.9591     0.1524     0.3726
A_3     C     0.2663     0.5396     0.595
A_3     C     0.114     0.2188     0.8448
A_3     C     0.7976     0.1744     0.7213
A_3     C     0.0071     0.9244     0.5266
A_3     C     0.5989     0.6587     0.4988
A_3     C     0.2823     0.7848     0.9096
A_3     C     0.3628     0.6093     0.4582
A_3     C     0.8521     0.7953     0.1414
A_3     C     0.9412     0.256     0.318
A_3     C     0.1094     0.1191     0.6402
A_3     C     0.8477     0.3588     0.0541
A_3     C     0.6184     0.4079     0.8461
A_3     C     0.0433     0.8399     0.6094
A_3     C     0.4091     0.0903     0.1981
A_3     C     0.1777     0.1123     0.1494
A_3     C     0.7901     0.0689     0.9001
A_3     C     0.1041     0.6489     0.5049
A_3     C     0.0098     0.8431     0.2678
A_3     C     0.7304     0.8632     0.8737
A_3     C     0.4185     0.0765     0.2751
A_3     C     0.2275     0.0957     0.2513
A_3     C     0.059     0.4828     0.563
A_3     C     0.5607     0.8175     0.3221
A_3     C     0.537     0.5759     0.7866
A_3     C     0.0965     0.2402     0.6958
A_3     C     0.8443     0.1716     0.0338
A_3     C     0.1101     0.8607     0.9974
A_3     C     0.7754     0.5232     0.5412
A_3     C     0.3222     0.5186     0.5658
A_3     C     0.3123     0.3943     0.5216
A_3     C     0.6262     0.5241     0.1278
A_3     C     0.0624     0.8109     0.6046
A_3     C     0.892     0.6221     0.9161
A_3     C     0.5098     0.2579     0.8103
A_3     C     0.0058     0.4802     0.0824
A_3     C     0.2277     0.5244     0.4536
A_3     C     0.0646     0.3358     0.916
A_3     C     0.4807     0.3851     0.1145
A_3     C     0.1926     0.1109     0.0567
A_3     C     0.4579     0.5725     0.5119
A_3     C     0.2541     0.5895     0.3558
A_3     C     0.4735     0.502     0.7802
A_3     C     0.2347     0.6893     0.3373
A_3     C     0.2555     0.0222     0.4804
A_3     C     0.3104     0.0031     0.4818
A_3     C     0.2562     0.1894     0.5379
A_3     C     0.1473     0.0242     0.4956
A_3     C     0.3085     0.1555     0.9205
A_3     C     0.6355     0.3615     0.2716
A_3     C     0.8607     0.0041     0.1609
A_3     C     0.7936     0.7183     0.7821
A_3     C     0.2649     0.3083     0.6709
A_3     C     0.0022     0.2811     0.7154
A_3     C     0.7945     0.7419     0.0812
A_3     C     0.9585     0.4318     0.6182
A_3     C     0.5413     0.2939     0.0819
A_3     C     0.8824     0.1542     0.1867
A_3     C     0.1379     0.9622     0.8531
A_3     C     0.2427     0.2181     0.1443
A_3     C     0.5014     0.4826     0.8855
A_3     C     0.8959     0.0142     0.3628
A_3     C     0.1262     0.6582     0.6785
A_3     C     0.0605     0.7106     0.4489
A_3     C     0.3301     0.6353     0.0487
A_3     C     0.9726     0.5569     0.9122
A_3     C     0.8531     0.1164     0.4965
A_3     C     0.5742     0.7729     0.2975
A_3     C     0.4119     0.2966     0.543
A_3     C     0.6392     0.7254     0.7082
A_3     C     0.5447     0.9651     0.2069
A_3     C     0.9014     0.519     0.4925
A_3     C     0.7956     0.8675     0.1006
A_3     C     0.5831     0.0355     0.7447
A_3     C     0.2998     0.5437     0.2303
A_3     C     0.8526     0.2196     0.3029
A_3     C     0.2478     0.5544     0.8545
A_3     C     0.054     0.1128     0.1192
A_3     C     0.9796     0.0022     0.6227
A_3     C     0.0621     0.2763     0.3722
A_3     C     0.3015     0.6291     0.7658
A_3     C     0.8325     0.8561     0.1901
A_3     C     0.1618     0.3888     0.1207
A_3     C     0.8269     0.1806     0.0235
A_3     C     0.7489     0.5239     0.9397
A_3     C     0.8294     0.3317     0.8677
