MAT-33

loop_
_symmetry_equiv_pos_as_xyz
  x,y,z
_cell_length_a          37.9806
_cell_length_b          49.7429
_cell_length_c          32.4119
_cell_angle_alpha       90.0000
_cell_angle_beta        90.0000
_cell_angle_gamma       90.0000
loop_
_atom_site_label
_atom_site_type_symbol
_atom_site_fract_x
_atom_site_fract_y
_atom_site_fract_z
A_1     C     0.765     0.3221     0.9517
A_3     C     0.7692     0.4459     0.6275
A_0     C     0.9251     0.9026     0.8399
A_2     C     0.1418     0.34     0.5748
A_0     C     0.3646     0.3923     0.1128
A_3     C     0.1762     0.9965     0.6204
A_2     C     0.5206     0.4599     0.1478
A_3     C     0.6078     0.9471     0.7226
A_3     C     0.0173     0.912     0.4539
A_2     C     0.806     0.5755     0.5768
A_3     C     0.9261     0.6966     0.9731
A_2     C     0.6795     0.9749     0.7473
A_3     C     0.6987     0.5285     0.9784
A_2     C     0.6111     0.8489     0.7702
A_3     C     0.4718     0.7589     0.9691
A_0     C     0.7723     0.0415     0.9215
A_3     C     0.9625     0.3765     0.7016
A_3     C     0.6443     0.1305     0.1956
A_3     C     0.4391     0.215     0.9166
A_1     C     0.7608     0.5296     0.6746
A_1     C     0.9472     0.2835     0.4676
A_1     C     0.9468     0.7596     0.2072
A_2     C     0.5387     0.8846     0.0534
A_2     C     0.5406     0.7788     0.678
A_1     C     0.5834     0.4779     0.3798
A_3     C     0.3184     0.3168     0.6268
A_3     C     0.3987     0.6238     0.7218
A_2     C     0.4781     0.2844     0.4649
A_1     C     0.1688     0.1938     0.211
A_3     C     0.1244     0.9877     0.3985
A_1     C     0.2681     0.5069     0.7708
A_0     C     0.6132     0.6266     0.1706
A_2     C     0.7416     0.5907     0.4083
A_3     C     0.0858     0.4386     0.1452
A_3     C     0.6533     0.5808     0.8979
A_3     C     0.626     0.6589     0.1595
A_3     C     0.2243     0.8187     0.8997
A_2     C     0.5328     0.8348     0.6538
A_3     C     0.9013     0.7314     0.1271
A_3     C     0.0578     0.8393     0.7702
A_1     C     0.6849     0.0907     0.5468
A_2     C     0.6511     0.0375     0.3517
A_2     C     0.2057     0.0117     0.8367
A_0     C     0.8265     0.2121     0.3942
A_3     C     0.789     0.6078     0.375
A_2     C     0.1611     0.0879     0.818
A_0     C     0.7641     0.2398     0.689
A_2     C     0.5095     0.398     0.9478
A_3     C     0.4019     0.6745     0.4375
A_3     C     0.7113     0.3297     0.2511
A_2     C     0.0539     0.3649     0.2558
A_2     C     0.2657     0.0737     0.3676
A_2     C     0.9422     0.5958     0.0427
A_3     C     0.5313     0.9805     0.8135
A_0     C     0.2877     0.0424     0.6534
A_1     C     0.3837     0.1187     0.3029
A_1     C     0.8435     0.0872     0.5948
A_1     C     0.6086     0.6326     0.1417
A_3     C     0.9633     0.8746     0.1555
A_2     C     0.2677     0.4771     0.3866
A_1     C     0.8369     0.3663     0.8208
A_3     C     0.0914     0.3667     0.7166
A_2     C     0.5517     0.0117     0.917
A_0     C     0.1852     0.955     0.6963
A_0     C     0.1849     0.2432     0.2914
A_3     C     0.5748     0.0778     0.8699
A_0     C     0.276     0.5628     0.2875
A_0     C     0.7404     0.0978     0.0605
A_0     C     0.5703     0.5406     0.5388
A_0     C     0.2702     0.3921     0.8033
A_3     C     0.5273     0.9611     0.8127
A_2     C     0.2694     0.326     0.7348
A_1     C     0.0931     0.952     0.4395
A_3     C     0.4067     0.3361     0.4647
A_3     C     0.3224     0.4539     0.9343
A_1     C     0.3475     0.6971     0.7842
A_3     C     0.7651     0.1626     0.132
A_0     C     0.0211     0.5257     0.1503
A_1     C     0.2572     0.8526     0.4197
A_1     C     0.8281     0.8126     0.9023
A_2     C     0.716     0.8224     0.6727
A_1     C     0.9616     0.9333     0.8948
A_2     C     0.5233     0.2577     0.2114
A_2     C     0.5762     0.5035     0.981
A_0     C     0.3341     0.6706     0.0808
A_1     C     0.5614     0.9018     0.6845
A_2     C     0.4642     0.7543     0.4322
A_3     C     0.0881     0.1414     0.2536
A_3     C     0.4901     0.4369     0.1437
A_1     C     0.0858     0.8086     0.8801
A_2     C     0.9435     0.8784     0.3475
A_1     C     0.1727     0.9599     0.7181
A_2     C     0.509     0.6574     0.7731
A_2     C     0.1173     0.9546     0.5323
A_2     C     0.744     0.9701     0.3041
A_3     C     0.2933     0.5555     0.9653
A_2     C     0.4002     0.0592     0.0982
A_1     C     0.673     0.2886     0.1032
A_1     C     0.9117     0.7142     0.5363
A_1     C     0.7372     0.0313     0.2741
A_1     C     0.467     0.7844     0.7879
A_3     C     0.9368     0.8387     0.0108
A_3     C     0.8373     0.5612     0.5242
A_3     C     0.1007     0.0592     0.9123
A_0     C     0.0273     0.5945     0.0188
A_1     C     0.1162     0.0115     0.3789
A_3     C     0.5813     0.3582     0.894
A_3     C     0.7704     0.7844     0.9135
A_0     C     0.7215     0.3526     0.3968
A_0     C     0.2822     0.8674     0.5538
A_1     C     0.9701     0.1233     0.8787
A_2     C     0.322     0.4085     0.302
A_0     C     0.333     0.2234     0.3425
A_1     C     0.1435     0.8073     0.6892
A_1     C     0.3462     0.2927     0.3667
A_1     C     0.8376     0.4012     0.5694
A_1     C     0.1809     0.9252     0.9766
A_2     C     0.5359     0.0138     0.8922
A_3     C     0.9395     0.8346     0.5043
A_3     C     0.004     0.7514     0.7027
A_3     C     0.5605     0.4485     0.6168
A_2     C     0.1981     0.3442     0.1178
A_0     C     0.085     0.0279     0.1086
A_3     C     0.5593     0.975     0.1939
A_2     C     0.0667     0.5962     0.6828
A_0     C     0.3491     0.7495     0.5145
A_1     C     0.1318     0.9878     0.2902
A_2     C     0.9201     0.4529     0.9085
A_1     C     0.6632     0.261     0.2588
A_1     C     0.1407     0.7275     0.5246
A_3     C     0.1864     0.2968     0.3915
A_0     C     0.0011     0.8491     0.4455
A_3     C     0.6612     0.8175     0.8631
A_0     C     0.0581     0.8795     0.9937
A_2     C     0.6591     0.5328     0.3159
A_1     C     0.081     0.8781     0.5448
A_1     C     0.5332     0.1446     0.0062
A_0     C     0.9895     0.5427     0.2342
A_2     C     0.0443     0.9455     0.8291
A_2     C     0.2182     0.1144     0.0884
A_0     C     0.1591     0.3673     0.6037
A_0     C     0.5522     0.42     0.8415
A_0     C     0.8209     0.1991     0.075
A_2     C     0.694     0.9437     0.5553
A_2     C     0.4825     0.2631     0.608
A_2     C     0.7133     0.321     0.8411
A_2     C     0.1967     0.8803     0.9413
A_1     C     0.0242     0.0308     0.7611
A_3     C     0.9886     0.3607     0.7891
A_2     C     0.4375     0.1903     0.5693
A_0     C     0.2574     0.9699     0.5466
A_3     C     0.8987     0.4546     0.9323
A_1     C     0.6556     0.8825     0.6099
A_0     C     0.8564     0.1967     0.905
A_3     C     0.9756     0.7426     0.5609
A_2     C     0.8516     0.844     0.0967
A_3     C     0.5202     0.6427     0.5572
A_2     C     0.9154     0.3252     0.5765
A_0     C     0.1015     0.7446     0.8569
A_1     C     0.554     0.769     0.2089
A_0     C     0.6375     0.6509     0.0577
A_2     C     0.0318     0.493     0.0583
A_3     C     0.2152     0.4298     0.3705
A_3     C     0.8851     0.7289     0.6454
A_0     C     0.8068     0.1388     0.7054
A_0     C     0.6111     0.2348     0.9619
A_3     C     0.6359     0.2232     0.5844
A_0     C     0.484     0.5474     0.5578
A_2     C     0.7351     0.6857     0.3023
A_0     C     0.2106     0.8857     0.0688
A_2     C     0.0227     0.6364     0.8235
A_2     C     0.0441     0.7539     0.0707
A_0     C     0.4488     0.9412     0.2175
A_1     C     0.59     0.0493     0.2645
A_0     C     0.8063     0.6375     0.3261
A_0     C     0.274     0.3126     0.0578
A_1     C     0.301     0.7581     0.5131
A_3     C     0.68     0.5705     0.5466
A_0     C     0.4088     0.524     0.6118
A_1     C     0.7283     0.8357     0.7362
A_0     C     0.5639     0.9656     0.8472
A_0     C     0.1179     0.1132     0.2283
A_2     C     0.7727     0.4503     0.3
A_1     C     0.6882     0.8954     0.914
A_1     C     0.3458     0.0156     0.1107
A_1     C     0.3482     0.1996     0.9778
A_3     C     0.9038     0.5894     0.7188
A_0     C     0.9149     0.3432     0.9288
A_2     C     0.1517     0.2994     0.6178
A_1     C     0.0027     0.8218     0.3536
A_0     C     0.6495     0.3673     0.726
A_2     C     0.6324     0.6234     0.7976
A_3     C     0.8778     0.4532     0.4823
A_3     C     0.4541     0.1766     0.9887
A_0     C     0.7982     0.1105     0.2521
A_0     C     0.0578     0.2905     0.7057
A_2     C     0.7797     0.2123     0.4999
A_1     C     0.1606     0.4632     0.6831
A_0     C     0.1112     0.6617     0.8568
A_1     C     0.1168     0.5421     0.9896
A_3     C     0.6512     0.5205     0.3132
A_0     C     0.1811     0.863     0.9892
A_0     C     0.9819     0.4862     0.6623
A_2     C     0.4131     0.9377     0.6788
A_1     C     0.7861     0.7263     0.9094
A_3     C     0.3991     0.1151     0.1709
A_2     C     0.3932     0.813     0.4105
A_1     C     0.2366     0.9499     0.3934
A_3     C     0.3046     0.4328     0.7374
A_0     C     0.1162     0.7119     0.4277
A_3     C     0.7164     0.959     0.778
A_2     C     0.5661     0.7997     0.0537
A_2     C     0.9714     0.1269     0.4653
A_2     C     0.3105     0.8645     0.2028
A_1     C     0.3319     0.5868     0.0111
A_3     C     0.6921     0.613     0.339
A_1     C     0.1645     0.4016     0.8069
A_2     C     0.4265     0.8603     0.8309
A_3     C     0.3346     0.4541     0.9637
A_3     C     0.2717     0.3195     0.062
A_1     C     0.4278     0.4842     0.1323
A_2     C     0.0109     0.98     0.1914
A_1     C     0.0288     0.3264     0.8344
A_0     C     0.4962     0.32     0.0927
A_2     C     0.2492     0.5316     0.3407
A_1     C     0.4896     0.5758     0.9304
A_1     C     0.1216     0.08     0.1288
A_3     C     0.2824     0.9377     0.4684
A_0     C     0.9058     0.491     0.8555
A_3     C     0.3997     0.7437     0.9635
A_2     C     0.0135     0.1792     0.9835
A_0     C     0.0425     0.2931     0.464
A_3     C     0.6832     0.2964     0.3796
A_0     C     0.7214     0.3965     0.4211
A_2     C     0.1063     0.5496     0.4633
A_3     C     0.513     0.8578     0.2914
A_0     C     0.1383     0.8345     0.9346
A_1     C     0.6051     0.0109     0.0165
A_2     C     0.5268     0.9335     0.4732
A_1     C     0.3468     0.0689     0.0488
A_2     C     0.9644     0.7313     0.6696
A_1     C     0.2622     0.5163     0.8654
A_2     C     0.3416     0.6436     0.4716
A_0     C     0.1427     0.7835     0.7079
A_2     C     0.9467     0.1244     0.5153
A_0     C     0.9511     0.7185     0.8117
A_3     C     0.8526     0.6767     0.6656
A_0     C     0.9531     0.5087     0.9302
A_1     C     0.1154     0.371     0.4929
A_0     C     0.1476     0.2627     0.1174
A_1     C     0.951     0.7641     0.478
A_1     C     0.2128     0.5591     0.6392
A_3     C     0.6961     0.9497     0.7956
A_0     C     0.1275     0.1383     0.2341
A_1     C     0.918     0.6807     0.3838
A_3     C     0.541     0.0761     0.2141
A_2     C     0.9377     0.089     0.9778
A_2     C     0.4193     0.3131     0.6587
A_1     C     0.9202     0.8527     0.4632
A_2     C     0.2351     0.3666     0.0661
A_3     C     0.4992     0.2077     0.5047
A_0     C     0.6892     0.5709     0.4053
A_2     C     0.399     0.5505     0.8753
A_2     C     0.7166     0.9235     0.1263
A_1     C     0.0858     0.7828     0.4858
A_3     C     0.0765     0.3667     0.3808
A_2     C     0.5552     0.9812     0.1199
A_3     C     0.6355     0.4291     0.8483
A_0     C     0.877     0.5816     0.4215
A_3     C     0.8131     0.6893     0.4853
A_3     C     0.3362     0.4389     0.9119
A_0     C     0.7705     0.4515     0.3665
A_0     C     0.824     0.3258     0.44
A_2     C     0.0663     0.8565     0.7879
A_3     C     0.0392     0.0147     0.2284
A_3     C     0.9962     0.6629     0.3386
A_2     C     0.6454     0.0114     0.9902
A_2     C     0.9944     0.942     0.7649
A_0     C     0.8919     0.4589     0.3767
A_2     C     0.1461     0.6505     0.2124
A_2     C     0.4715     0.7826     0.4948
A_1     C     0.3455     0.4114     0.7899
A_1     C     0.9736     0.4865     0.5934
A_3     C     0.5776     0.8042     0.9591
A_0     C     0.2288     0.4711     0.7132
A_0     C     0.5041     0.8539     0.7076
A_3     C     0.1708     0.2852     0.9276
A_1     C     0.4848     0.9263     0.869
A_3     C     0.1966     0.5547     0.0219
A_2     C     0.0732     0.89     0.4304
A_2     C     0.9152     0.9374     0.3214
A_3     C     0.8679     0.11     0.1566
A_0     C     0.7641     0.6934     0.6292
A_3     C     0.0524     0.682     0.8604
A_3     C     0.4731     0.4571     0.5404
A_0     C     0.0067     0.5326     0.0941
A_0     C     0.3236     0.0696     0.9566
A_3     C     0.5297     0.4429     0.0462
A_0     C     0.8143     0.0844     0.3
A_2     C     0.9802     0.7366     0.4776
A_3     C     0.0973     0.2616     0.8405
A_2     C     0.5572     0.262     0.3469
A_2     C     0.2584     0.7722     0.9451
A_1     C     0.6548     0.0411     0.3979
A_3     C     0.0055     0.9417     0.3303
A_2     C     0.2539     0.3394     0.8986
A_2     C     0.2438     0.4682     0.0271
A_2     C     0.143     0.3395     0.342
A_2     C     0.5235     0.8351     0.378
A_2     C     0.6839     0.6851     0.2502
A_2     C     0.1791     0.1753     0.6846
