MAT-60

loop_
_symmetry_equiv_pos_as_xyz
  x,y,z
_cell_length_a          38.4712
_cell_length_b          49.154
_cell_length_c          33.9328
_cell_angle_alpha       90.0000
_cell_angle_beta        90.0000
_cell_angle_gamma       90.0000
loop_
_atom_site_label
_atom_site_type_symbol
_atom_site_fract_x
_atom_site_fract_y
_atom_site_fract_z
A_1     C     0.7887     0.2532     0.8988
A_3     C     0.8658     0.4072     0.6589
A_0     C     0.8792     0.9324     0.8501
A_2     C     0.216     0.3664     0.5635
A_0     C     0.3713     0.3751     0.176
A_3     C     0.1684     0.9039     0.7082
A_2     C     0.5917     0.5051     0.0492
A_3     C     0.5743     0.9125     0.69
A_3     C     0.1021     0.9048     0.4369
A_2     C     0.7259     0.6297     0.622
A_3     C     0.8418     0.7003     0.072
A_2     C     0.6246     0.0222     0.6905
A_3     C     0.7093     0.4303     0.9305
A_2     C     0.5607     0.7907     0.719
A_3     C     0.4467     0.83     0.9889
A_0     C     0.8011     0.0036     0.8636
A_3     C     0.9378     0.3798     0.7326
A_3     C     0.6964     0.1419     0.2315
A_3     C     0.4865     0.1405     0.9581
A_1     C     0.8223     0.4968     0.6303
A_1     C     0.8686     0.2251     0.5056
A_1     C     0.8874     0.7409     0.2952
A_2     C     0.5848     0.9644     0.9555
A_2     C     0.5396     0.8602     0.6237
A_1     C     0.6544     0.4351     0.3307
A_3     C     0.3918     0.2757     0.6774
A_3     C     0.468     0.7088     0.787
A_2     C     0.4618     0.2031     0.5396
A_1     C     0.1383     0.2102     0.291
A_3     C     0.0681     0.0436     0.3209
A_1     C     0.2555     0.5199     0.792
A_0     C     0.7067     0.6248     0.2595
A_2     C     0.8013     0.5331     0.3991
A_3     C     0.1754     0.5221     0.2232
A_3     C     0.6219     0.5474     0.9341
A_3     C     0.6186     0.7361     0.165
A_3     C     0.2593     0.7228     0.9664
A_2     C     0.5501     0.7792     0.6873
A_3     C     0.8202     0.7548     0.0544
A_3     C     0.0927     0.8235     0.7277
A_1     C     0.7547     0.019     0.5045
A_2     C     0.5792     0.0319     0.3282
A_2     C     0.2326     0.0184     0.9063
A_0     C     0.8588     0.3038     0.3852
A_3     C     0.7903     0.5585     0.4528
A_2     C     0.2351     0.9992     0.8434
A_0     C     0.6776     0.1455     0.6595
A_2     C     0.5237     0.4933     0.0096
A_3     C     0.4418     0.7268     0.5072
A_3     C     0.8085     0.2861     0.1602
A_2     C     0.1319     0.3357     0.2724
A_2     C     0.3211     0.074     0.3139
A_2     C     0.8504     0.5771     0.0233
A_3     C     0.4523     0.0447     0.9125
A_0     C     0.3492     0.021     0.6269
A_1     C     0.3746     0.0703     0.3424
A_1     C     0.8876     0.0172     0.6914
A_1     C     0.6084     0.7125     0.0889
A_3     C     0.0601     0.937     0.1825
A_2     C     0.265     0.5132     0.3327
A_1     C     0.8856     0.3193     0.7325
A_3     C     0.1416     0.3725     0.7182
A_2     C     0.5214     0.9848     0.0159
A_0     C     0.2749     0.911     0.7095
A_0     C     0.1187     0.1782     0.2255
A_3     C     0.6546     0.049     0.962
A_0     C     0.2468     0.5869     0.3836
A_0     C     0.7582     0.1561     0.1575
A_0     C     0.6339     0.5078     0.5349
A_0     C     0.2008     0.4339     0.7169
A_3     C     0.5035     0.0315     0.7167
A_2     C     0.2817     0.3034     0.7038
A_1     C     0.0001     0.9905     0.4567
A_3     C     0.3682     0.3738     0.5466
A_3     C     0.3222     0.4964     0.9882
A_1     C     0.3151     0.6839     0.8459
A_3     C     0.8477     0.0838     0.1461
A_0     C     0.0204     0.5192     0.2224
A_1     C     0.2957     0.7576     0.3755
A_1     C     0.9123     0.8116     0.8394
A_2     C     0.6198     0.8797     0.6236
A_1     C     0.9264     0.8702     0.7983
A_2     C     0.5338     0.3203     0.1782
A_2     C     0.5432     0.4451     0.9568
A_0     C     0.2633     0.7366     0.113
A_1     C     0.5937     0.8204     0.6703
A_2     C     0.4887     0.7201     0.3807
A_3     C     0.0483     0.207     0.194
A_3     C     0.4011     0.3901     0.2436
A_1     C     0.0813     0.7487     0.8307
A_2     C     0.9677     0.8156     0.333
A_1     C     0.16     0.9076     0.6499
A_2     C     0.4666     0.6621     0.7334
A_2     C     0.0828     0.9282     0.4338
A_2     C     0.8013     0.9869     0.3655
A_3     C     0.3899     0.543     0.0446
A_2     C     0.4583     0.9765     0.1471
A_1     C     0.7527     0.2004     0.0426
A_1     C     0.8367     0.6727     0.6198
A_1     C     0.7522     0.9961     0.2012
A_1     C     0.5579     0.7308     0.8786
A_3     C     0.911     0.9048     0.1065
A_3     C     0.8435     0.55     0.4507
A_3     C     0.1629     0.1556     0.8474
A_0     C     0.9757     0.589     0.0314
A_1     C     0.1099     0.9615     0.4495
A_3     C     0.4953     0.3554     0.8951
A_3     C     0.7209     0.7206     0.8953
A_0     C     0.779     0.2613     0.3522
A_0     C     0.2816     0.8656     0.5975
A_1     C     0.9574     0.0703     0.8518
A_2     C     0.3357     0.409     0.3855
A_0     C     0.3366     0.3165     0.3112
A_1     C     0.0514     0.7367     0.7272
A_1     C     0.3149     0.3636     0.3701
A_1     C     0.8802     0.3093     0.6421
A_1     C     0.1915     0.9759     0.9714
A_2     C     0.571     0.0317     0.9194
A_3     C     0.8892     0.7888     0.5979
A_3     C     0.9094     0.8148     0.7229
A_3     C     0.5919     0.5     0.5511
A_2     C     0.2175     0.2983     0.0498
A_0     C     0.1563     0.9723     0.068
A_3     C     0.5001     0.0095     0.2906
A_2     C     0.1125     0.636     0.6578
A_0     C     0.435     0.6652     0.4477
A_1     C     0.1509     0.9086     0.3104
A_2     C     0.9305     0.3998     0.8917
A_1     C     0.5704     0.2728     0.2838
A_1     C     0.2402     0.7882     0.6051
A_3     C     0.1667     0.2691     0.365
A_0     C     0.9936     0.9081     0.4029
A_3     C     0.5628     0.8669     0.789
A_0     C     0.0503     0.9493     0.8982
A_2     C     0.7118     0.6306     0.3274
A_1     C     0.1793     0.8431     0.5684
A_1     C     0.4719     0.1098     0.966
A_0     C     0.9662     0.4849     0.2834
A_2     C     0.9569     0.0132     0.7394
A_2     C     0.1885     0.1089     0.1262
A_0     C     0.1344     0.4356     0.5495
A_0     C     0.5768     0.4868     0.8702
A_0     C     0.7762     0.2167     0.1341
A_2     C     0.6616     0.896     0.6098
A_2     C     0.3887     0.1671     0.6293
A_2     C     0.7428     0.2897     0.9405
A_2     C     0.197     0.9359     0.9294
A_1     C     0.027     0.9335     0.758
A_3     C     0.9867     0.4602     0.7188
A_2     C     0.3521     0.1012     0.5686
A_0     C     0.2803     0.9747     0.5515
A_3     C     0.962     0.4712     0.9327
A_1     C     0.6121     0.956     0.5853
A_0     C     0.8141     0.2744     0.888
A_3     C     0.0258     0.6496     0.6232
A_2     C     0.8463     0.9332     0.0822
A_3     C     0.5004     0.6152     0.4847
A_2     C     0.8783     0.3747     0.6117
A_0     C     0.0983     0.7784     0.856
A_1     C     0.6506     0.7066     0.1179
A_0     C     0.7258     0.7307     0.99
A_2     C     0.0884     0.5147     0.9612
A_3     C     0.3016     0.3372     0.4092
A_3     C     0.9128     0.7321     0.6989
A_0     C     0.8166     0.2382     0.6845
A_0     C     0.5648     0.2414     0.8975
A_3     C     0.6822     0.2883     0.6253
A_0     C     0.477     0.6375     0.5339
A_2     C     0.6833     0.7189     0.2499
A_0     C     0.1445     0.8514     0.0697
A_2     C     0.054     0.537     0.896
A_2     C     0.9904     0.7215     0.0052
A_0     C     0.3672     0.8878     0.1801
A_1     C     0.5011     0.108     0.2028
A_0     C     0.8096     0.5825     0.2591
A_0     C     0.3212     0.2874     0.0626
A_1     C     0.205     0.7042     0.5895
A_3     C     0.5882     0.606     0.5261
A_0     C     0.4546     0.5347     0.5453
A_1     C     0.7616     0.8381     0.689
A_0     C     0.5861     0.0264     0.8406
A_0     C     0.1038     0.2006     0.2412
A_2     C     0.6798     0.4666     0.2495
A_1     C     0.621     0.8113     0.9796
A_1     C     0.2867     0.0778     0.1177
A_1     C     0.4142     0.221     0.0396
A_3     C     0.9298     0.5648     0.7796
A_0     C     0.994     0.3761     0.978
A_2     C     0.2277     0.3944     0.6108
A_1     C     0.0371     0.8058     0.3635
A_0     C     0.6447     0.3122     0.7368
A_2     C     0.6451     0.5971     0.7228
A_3     C     0.9648     0.4723     0.5737
A_3     C     0.4103     0.2138     0.0071
A_0     C     0.8183     0.1657     0.3223
A_0     C     0.9947     0.212     0.6786
A_2     C     0.7006     0.21     0.4843
A_1     C     0.1412     0.4805     0.7661
A_0     C     0.1021     0.665     0.9487
A_1     C     0.0651     0.476     0.897
A_3     C     0.664     0.5186     0.3157
A_0     C     0.1442     0.9188     0.0142
A_0     C     0.942     0.421     0.6076
A_2     C     0.3943     0.8586     0.6906
A_1     C     0.8793     0.7796     0.849
A_3     C     0.4711     0.1667     0.1378
A_2     C     0.3068     0.757     0.4528
A_1     C     0.2408     0.0095     0.4702
A_3     C     0.32     0.4557     0.7879
A_0     C     0.0338     0.6124     0.4567
A_3     C     0.642     0.9278     0.8097
A_2     C     0.4795     0.7393     0.981
A_2     C     0.9359     0.1799     0.4713
A_2     C     0.3145     0.7846     0.1501
A_1     C     0.2333     0.6489     0.0408
A_3     C     0.617     0.6746     0.4189
A_1     C     0.1386     0.3427     0.7326
A_2     C     0.3991     0.9148     0.7856
A_3     C     0.4259     0.4791     0.0259
A_3     C     0.206     0.2436     0.048
A_1     C     0.409     0.4559     0.164
A_2     C     0.9771     0.9217     0.1039
A_1     C     0.1231     0.2927     0.8962
A_0     C     0.4703     0.2881     0.1102
A_2     C     0.2457     0.5062     0.4187
A_1     C     0.5168     0.5636     0.9574
A_1     C     0.0764     0.9809     0.044
A_3     C     0.3468     0.8456     0.4774
A_0     C     0.9247     0.5357     0.9321
A_3     C     0.3193     0.6836     0.0367
A_2     C     0.9543     0.1562     0.0418
A_0     C     0.0095     0.256     0.523
A_3     C     0.6796     0.3388     0.4362
A_0     C     0.6375     0.3973     0.3479
A_2     C     0.0716     0.4521     0.5001
A_3     C     0.5316     0.8121     0.365
A_0     C     0.1305     0.8166     0.8382
A_1     C     0.6692     0.9139     0.9417
A_2     C     0.5485     0.0076     0.4087
A_1     C     0.4248     0.9696     0.9721
A_2     C     0.016     0.7904     0.581
A_1     C     0.2825     0.4639     0.8563
A_2     C     0.2694     0.684     0.4329
A_0     C     0.1873     0.6841     0.6122
A_2     C     0.9051     0.1151     0.4724
A_0     C     0.9691     0.8088     0.8656
A_3     C     0.791     0.7695     0.6478
A_0     C     0.9396     0.4894     0.0234
A_1     C     0.1507     0.2741     0.4037
A_0     C     0.0567     0.1759     0.2089
A_1     C     0.9299     0.8615     0.4285
A_1     C     0.1664     0.5708     0.5938
A_3     C     0.6415     0.0412     0.8084
A_0     C     0.1352     0.1527     0.2906
A_1     C     0.819     0.7505     0.3499
A_3     C     0.5876     0.0592     0.131
A_2     C     0.0311     0.1474     0.0706
A_2     C     0.4038     0.3439     0.6507
A_1     C     0.9287     0.8756     0.4945
A_2     C     0.1735     0.4541     0.0645
A_3     C     0.4138     0.2696     0.4288
A_0     C     0.7795     0.4973     0.4025
A_2     C     0.4881     0.6412     0.919
A_2     C     0.7506     0.8468     0.1614
A_1     C     0.1308     0.8596     0.5566
A_3     C     0.1666     0.3716     0.4264
A_2     C     0.5833     0.9557     0.025
A_3     C     0.665     0.4661     0.8816
A_0     C     0.8483     0.5563     0.4783
A_3     C     0.9058     0.6216     0.577
A_3     C     0.3102     0.3577     0.9886
A_0     C     0.7625     0.4122     0.4555
A_0     C     0.7375     0.2877     0.3641
A_2     C     0.0513     0.8795     0.8341
A_3     C     0.0385     0.0728     0.162
A_3     C     0.9722     0.6038     0.4201
A_2     C     0.7444     0.9536     0.0507
A_2     C     0.9263     0.0175     0.7728
A_0     C     0.814     0.4009     0.306
A_2     C     0.2134     0.7031     0.1322
A_2     C     0.408     0.7914     0.4186
A_1     C     0.2985     0.3915     0.8643
A_1     C     0.9088     0.4419     0.5549
A_3     C     0.6544     0.7718     0.9793
A_0     C     0.134     0.5572     0.807
A_0     C     0.484     0.8898     0.6427
A_3     C     0.2325     0.3132     0.9128
A_1     C     0.4448     0.9995     0.9597
A_3     C     0.1927     0.6001     0.0703
A_2     C     0.0821     0.8022     0.411
A_2     C     0.933     0.9531     0.3559
A_3     C     0.8136     0.1877     0.1598
A_0     C     0.7503     0.6814     0.6739
A_3     C     0.1321     0.7796     0.8222
A_3     C     0.5115     0.3572     0.5304
A_0     C     0.041     0.5101     0.1252
A_0     C     0.34     0.9847     0.0035
A_3     C     0.4678     0.441     0.0369
A_0     C     0.8607     0.0341     0.3867
A_2     C     0.0149     0.7299     0.4463
A_3     C     0.1174     0.3049     0.9331
A_2     C     0.5995     0.3048     0.2792
A_2     C     0.2744     0.7146     0.0372
A_1     C     0.6157     0.0452     0.3894
A_3     C     0.0721     0.0122     0.2575
A_2     C     0.1824     0.3797     0.9279
A_2     C     0.2301     0.3921     0.0875
A_2     C     0.0597     0.3263     0.295
A_2     C     0.4981     0.7659     0.4591
A_2     C     0.6252     0.7094     0.1848
A_2     C     0.249     0.2149     0.6962
A_2     C     0.5974     0.2369     0.6716
A_2     C     0.1877     0.8486     0.3951
A_2     C     0.9392     0.1948     0.9097
A_2     C     0.0869     0.3666     0.0337
A_2     C     0.898     0.0639     0.6745
A_2     C     0.3627     0.9168     0.1274
A_2     C     0.519     0.4628     0.3501
A_2     C     0.5624     0.8676     0.3262
A_2     C     0.4694     0.8688     0.1291
A_2     C     0.4893     0.9626     0.872
A_2     C     0.887     0.9816     0.2478
A_2     C     0.2999     0.6031     0.1064
A_2     C     0.2431     0.7981     0.9723
A_2     C     0.6012     0.7482     0.2551
A_2     C     0.3389     0.8655     0.4002
A_2     C     0.1675     0.9991     0.5778
A_2     C     0.5092     0.5383     0.2754
A_2     C     0.0339     0.183     0.2571
A_2     C     0.6353     0.8638     0.0373
A_2     C     0.6299     0.9012     0.2531
A_2     C     0.1593     0.1753     0.0381
A_2     C     0.026     0.9366     0.4263
A_2     C     0.8994     0.8928     0.174
A_2     C     0.0462     0.7714     0.4868
A_2     C     0.4908     0.6423     0.3345
A_2     C     0.5391     0.4955     0.1867
A_2     C     0.0633     0.3565     0.5781
A_2     C     0.3419     0.2605     0.3955
A_2     C     0.8569     0.0715     0.0569
A_2     C     0.6991     0.662     0.9404
A_2     C     0.9329     0.3838     0.1253
A_2     C     0.3791     0.088     0.3893
A_2     C     0.9346     0.4087     0.8932
A_2     C     0.1381     0.6525     0.8164
A_2     C     0.1604     0.168     0.8207
A_2     C     0.5793     0.3037     0.0827
A_2     C     0.333     0.0941     0.6558
A_2     C     0.6926     0.9904     0.5491
A_2     C     0.2431     0.1755     0.7865
A_2     C     0.8612     0.0697     0.2597
A_2     C     0.4137     0.1138     0.4996
A_2     C     0.9061     0.3096     0.9106
A_2     C     0.837     0.1988     0.0921
A_2     C     0.4445     0.1466     0.2414
A_2     C     0.0301     0.2817     0.539
A_2     C     0.4963     0.6371     0.4787
A_2     C     0.2337     0.6344     0.3138
A_2     C     0.9241     0.2055     0.878
A_2     C     0.4608     0.8137     0.9186
A_2     C     0.3617     0.1698     0.6316
A_2     C     0.8497     0.8044     0.6912
A_2     C     0.7331     0.9517     0.7146
A_2     C     0.4862     0.2747     0.727
A_2     C     0.7476     0.0656     0.4046
A_2     C     0.7265     0.7755     0.0239
A_2     C     0.7558     0.6088     0.8362
A_2     C     0.9587     0.3901     0.3716
A_2     C     0.9533     0.715     0.9392
A_2     C     0.6484     0.6189     0.5817
A_2     C     0.9906     0.8365     0.558
A_2     C     0.6048     0.8628     0.5758
A_2     C     0.142     0.5705     0.9703
A_2     C     0.6132     0.544     0.597
A_2     C     0.161     0.3561     0.397
A_2     C     0.3087     0.7922     0.2329
A_2     C     0.8823     0.3344     0.2581
A_2     C     0.7551     0.0382     0.6407
A_2     C     0.5696     0.6447     0.6563
A_2     C     0.6372     0.7834     0.7278
A_2     C     0.5645     0.0553     0.3299
A_2     C     0.9774     0.1895     0.2166
A_2     C     0.0402     0.8253     0.6564
A_2     C     0.1677     0.2522     0.3105
A_2     C     0.6763     0.9022     0.8448
A_2     C     0.3169     0.8525     0.834
A_2     C     0.8681     0.8436     0.5833
A_2     C     0.2932     0.4765     0.5291
A_2     C     0.0011     0.4148     0.4345
A_2     C     0.841     0.1666     0.8362
A_2     C     0.1741     0.5119     0.1238
A_2     C     0.9563     0.0685     0.7267
A_2     C     0.5073     0.1398     0.4937
A_2     C     0.6976     0.5387     0.1058
A_2     C     0.4912     0.825     0.7598
A_2     C     0.9267     0.177     0.4455
A_2     C     0.4086     0.737     0.4729
A_2     C     0.3995     0.2515     0.4711
A_2     C     0.2698     0.9564     0.7278
A_2     C     0.5189     0.3431     0.06
A_2     C     0.4921     0.9284     0.3921
A_2     C     0.1354     0.2407     0.0137
A_2     C     0.407     0.2034     0.3582
A_2     C     0.7464     0.083     0.5265
A_2     C     0.8109     0.8825     0.2899
A_2     C     0.2019     0.3003     0.0612
A_2     C     0.989     0.6119     0.5107
A_2     C     0.6028     0.9182     0.0625
A_2     C     0.9681     0.8634     0.9098
A_2     C     0.7615     0.9672     0.3896
A_2     C     0.067     0.9425     0.887
A_2     C     0.7247     0.8261     0.4925
A_2     C     0.2596     0.3425     0.4498
A_2     C     0.9012     0.8862     0.9034
A_2     C     0.5368     0.594     0.3833
A_2     C     0.6651     0.1241     0.5265
A_2     C     0.5191     0.9575     0.0752
A_2     C     0.9018     0.7164     0.5803
A_2     C     0.5717     0.6642     0.9662
A_2     C     0.283     0.9081     0.4998
A_2     C     0.7488     0.0068     0.9832
A_2     C     0.6044     0.048     0.6084
A_2     C     0.036     0.5922     0.6215
A_2     C     0.8783     0.1215     0.6054
A_2     C     0.0839     0.4603     0.7145
A_2     C     0.8475     0.0161     0.5845
A_2     C     0.1714     0.2749     0.3652
A_2     C     0.6532     0.2918     0.8755
A_2     C     0.0691     0.4873     0.835
A_2     C     0.5931     0.3027     0.9976
A_2     C     0.9159     0.7531     0.3115
A_2     C     0.5383     0.7277     0.2512
A_2     C     0.985     0.617     0.7736
A_2     C     0.5111     0.0844     0.2779
A_2     C     0.9157     0.6537     0.5075
A_2     C     0.5865     0.9554     0.668
A_2     C     0.1002     0.795     0.918
A_2     C     0.6085     0.3114     0.4292
A_2     C     0.0556     0.8389     0.9493
A_2     C     0.4518     0.3011     0.7962
A_2     C     0.9732     0.7019     0.3564
A_2     C     0.8854     0.5077     0.5949
