MAT-0

loop_
_symmetry_equiv_pos_as_xyz
  x,y,z
_cell_length_a          23.6414
_cell_length_b          15.4134
_cell_length_c          49.3892
_cell_angle_alpha       90.0000
_cell_angle_beta        90.0000
_cell_angle_gamma       90.0000
loop_
_atom_site_label
_atom_site_type_symbol
_atom_site_fract_x
_atom_site_fract_y
_atom_site_fract_z
A_0     C     0.7338     0.2225     0.6627
A_1     C     0.5474     0.2356     0.0826
A_3     C     0.1197     0.8003     0.7347
A_2     C     0.9667     0.8419     0.4137
A_1     C     0.5225     0.5424     0.2593
A_0     C     0.4587     0.4471     0.8954
A_1     C     0.3757     0.4334     0.4242
A_1     C     0.5976     0.0268     0.3951
A_0     C     0.8134     0.9986     0.7051
A_3     C     0.9516     0.6084     0.7524
A_0     C     0.7258     0.3197     0.8686
A_0     C     0.0312     0.9431     0.6232
A_1     C     0.0458     0.1192     0.8037
A_2     C     0.868     0.7281     0.2724
A_1     C     0.5569     0.5785     0.4538
A_0     C     0.692     0.4188     0.9958
A_0     C     0.82     0.4914     0.6638
A_3     C     0.768     0.8981     0.1376
A_0     C     0.6061     0.0915     0.4709
A_0     C     0.5906     0.4899     0.6608
A_1     C     0.4921     0.0038     0.1269
A_3     C     0.1881     0.7305     0.917
A_2     C     0.9607     0.1329     0.8789
A_1     C     0.7997     0.0246     0.9203
A_2     C     0.0697     0.9796     0.9635
A_2     C     0.1315     0.0753     0.676
A_0     C     0.6288     0.6157     0.228
A_3     C     0.1059     0.6123     0.891
A_2     C     0.9926     0.0235     0.6182
A_1     C     0.0198     0.4115     0.4423
A_3     C     0.7748     0.509     0.7761
A_3     C     0.648     0.5456     0.532
A_2     C     0.8881     0.7133     0.1474
A_0     C     0.7208     0.2759     0.0456
A_1     C     0.6062     0.3395     0.1439
A_2     C     0.0537     0.8558     0.1444
A_3     C     0.349     0.9743     0.1205
A_3     C     0.7642     0.203     0.1804
A_1     C     0.6574     0.5136     0.1555
A_2     C     0.7636     0.2654     0.8762
A_0     C     0.9421     0.7576     0.6777
A_0     C     0.003     0.1719     0.4403
A_1     C     0.0553     0.7975     0.6262
A_1     C     0.7374     0.478     0.869
A_2     C     0.7447     0.8133     0.0563
A_3     C     0.4518     0.5569     0.0567
A_1     C     0.2559     0.1792     0.941
A_0     C     0.1559     0.3523     0.3314
A_3     C     0.0365     0.5202     0.739
A_1     C     0.3371     0.4975     0.2206
A_1     C     0.9482     0.3088     0.4477
A_2     C     0.6598     0.9623     0.1271
A_3     C     0.9158     0.3108     0.3333
A_3     C     0.1487     0.1028     0.3694
A_3     C     0.7149     0.5086     0.6003
A_1     C     0.1654     0.1524     0.2327
A_2     C     0.8949     0.6099     0.5454
A_3     C     0.006     0.8115     0.9331
A_2     C     0.3663     0.6164     0.2595
A_2     C     0.4194     0.4474     0.2267
A_1     C     0.0779     0.5038     0.5176
A_1     C     0.3878     0.7915     0.9369
A_3     C     0.0261     0.656     0.4972
A_0     C     0.8312     0.8885     0.295
A_2     C     0.9519     0.1901     0.3916
A_0     C     0.317     0.0268     0.1961
A_0     C     0.7647     0.7497     0.0434
A_1     C     0.0099     0.4069     0.1428
A_1     C     0.4992     0.8744     0.8066
A_2     C     0.392     0.3666     0.6818
A_2     C     0.4195     0.5654     0.9543
A_3     C     0.6676     0.025     0.7378
A_1     C     0.0324     0.3057     0.1419
A_0     C     0.177     0.291     0.6256
A_2     C     0.5233     0.85     0.1506
A_3     C     0.1669     0.1695     0.5738
A_3     C     0.7972     0.5522     0.5377
A_0     C     0.6704     0.9658     0.1445
A_0     C     0.1367     0.1083     0.0242
A_2     C     0.5288     0.1904     0.4053
A_3     C     0.909     0.0973     0.5602
A_1     C     0.2113     0.9404     0.6809
A_2     C     0.7701     0.8532     0.7717
A_3     C     0.3141     0.1062     0.7758
A_0     C     0.1983     0.4923     0.666
A_0     C     0.7034     0.5585     0.3148
A_2     C     0.2496     0.6385     0.1
A_2     C     0.7793     0.1107     0.3962
A_1     C     0.4734     0.7222     0.7206
A_2     C     0.6726     0.1229     0.7006
A_2     C     0.6461     0.1539     0.8563
A_3     C     0.4507     0.2967     0.1058
A_2     C     0.6223     0.6565     0.1355
A_1     C     0.5653     0.9087     0.1333
A_2     C     0.1212     0.6702     0.7543
A_1     C     0.1482     0.216     0.3286
A_3     C     0.0125     0.6006     0.2125
A_1     C     0.1348     0.0046     0.1858
A_1     C     0.6333     0.8398     0.8881
A_0     C     0.2805     0.5868     0.8031
A_3     C     0.11     0.2505     0.6108
A_1     C     0.6904     0.4019     0.9535
A_2     C     0.9251     0.246     0.6798
A_0     C     0.2217     0.9274     0.6136
A_3     C     0.4634     0.8145     0.0408
A_0     C     0.8708     0.9045     0.923
A_2     C     0.8545     0.9365     0.6639
A_0     C     0.2363     0.6219     0.8763
A_2     C     0.4919     0.3229     0.9204
A_3     C     0.091     0.0734     0.2515
A_0     C     0.2692     0.1858     0.7073
A_2     C     0.3335     0.7488     0.466
A_3     C     0.251     0.3618     0.5824
A_3     C     0.6179     0.9595     0.0973
A_2     C     0.7118     0.8114     0.836
A_0     C     0.0221     0.3593     0.2959
A_3     C     0.3617     0.3915     0.2283
A_1     C     0.3722     0.674     0.7456
A_2     C     0.7143     0.1012     0.6377
A_2     C     0.7549     0.2552     0.2304
A_2     C     0.517     0.7245     0.6374
A_1     C     0.2666     0.632     0.0098
A_2     C     0.5828     0.5933     0.8809
A_3     C     0.2839     0.5874     0.0726
A_0     C     0.773     0.1744     0.0397
A_0     C     0.1653     0.6227     0.1215
A_2     C     0.4643     0.4414     0.3154
A_3     C     0.053     0.1267     0.2464
A_0     C     0.1106     0.7093     0.9103
A_2     C     0.6422     0.5699     0.9747
A_1     C     0.2211     0.8578     0.1952
A_3     C     0.4786     0.914     0.9695
A_1     C     0.6748     0.9898     0.3203
A_2     C     0.994     0.3452     0.4748
A_1     C     0.2629     0.5881     0.3151
A_0     C     0.2813     0.6305     0.9551
A_0     C     0.9667     0.3829     0.772
A_2     C     0.007     0.6236     0.3172
A_3     C     0.7714     0.8918     0.7716
A_0     C     0.1933     0.8104     0.8752
A_1     C     0.6522     0.5809     0.134
A_3     C     0.8126     0.1061     0.3256
A_3     C     0.5346     0.0366     0.083
A_0     C     0.6266     0.6922     0.1561
A_0     C     0.6873     0.9378     0.8201
A_0     C     0.5493     0.5927     0.8671
A_3     C     0.7719     0.5672     0.4715
A_0     C     0.5041     0.1192     0.7143
A_0     C     0.2552     0.7143     0.5505
A_1     C     0.2546     0.2157     0.3255
A_2     C     0.2829     0.8637     0.2014
A_2     C     0.1282     0.2748     0.125
A_0     C     0.8262     0.9803     0.8777
A_2     C     0.1201     0.8666     0.829
A_3     C     0.2125     0.656     0.3225
A_1     C     0.3883     0.8378     0.2139
A_0     C     0.7659     0.5245     0.5513
A_0     C     0.7079     0.1636     0.216
A_3     C     0.8943     0.4595     0.9097
A_2     C     0.1818     0.8393     0.6591
A_3     C     0.471     0.2395     0.576
A_0     C     0.5129     0.1685     0.3938
A_3     C     0.9938     0.1381     0.4353
A_2     C     0.6299     0.9262     0.1642
A_0     C     0.0199     0.8785     0.7242
A_0     C     0.5536     0.237     0.8446
A_1     C     0.4569     0.5708     0.615
A_2     C     0.5104     0.7163     0.6427
A_2     C     0.6935     0.3498     0.6743
A_2     C     0.2863     0.2641     0.5262
A_3     C     0.7729     0.8504     0.0194
A_3     C     0.1124     0.3491     0.2105
A_3     C     0.6217     0.854     0.8562
A_2     C     0.8859     0.313     0.7854
A_0     C     0.9447     0.4825     0.3075
A_1     C     0.8592     0.5083     0.8931
A_2     C     0.2125     0.9267     0.4476
A_2     C     0.9785     0.529     0.5524
A_0     C     0.7277     0.6312     0.9879
A_2     C     0.2089     0.8758     0.1021
A_3     C     0.7989     0.5045     0.0297
A_3     C     0.633     0.571     0.3919
A_3     C     0.3651     0.7612     0.9035
A_3     C     0.1261     0.4002     0.7908
A_2     C     0.4716     0.4425     0.3972
A_2     C     0.4997     0.433     0.0245
A_2     C     0.6053     0.9441     0.8152
A_1     C     0.5998     0.7504     0.4079
A_3     C     0.4531     0.3704     0.2241
A_3     C     0.1712     0.1504     0.6593
A_3     C     0.3485     0.5776     0.0708
A_0     C     0.01     0.8385     0.6179
A_1     C     0.3619     0.0883     0.7889
A_2     C     0.2476     0.9955     0.6136
A_2     C     0.4704     0.0219     0.6102
A_2     C     0.7603     0.6902     0.9765
A_0     C     0.3257     0.9684     0.5037
A_2     C     0.1009     0.7666     0.3956
A_3     C     0.7971     0.4765     0.5774
A_3     C     0.103     0.848     0.8233
A_1     C     0.6107     0.455     0.9549
A_3     C     0.6365     0.3399     0.5883
A_0     C     0.2684     0.6706     0.8212
A_3     C     0.1628     0.0273     0.5663
A_3     C     0.3292     0.5295     0.9748
A_3     C     0.0106     0.8706     0.6582
A_1     C     0.1043     0.8487     0.8677
A_2     C     0.2761     0.0887     0.6015
A_0     C     0.1219     0.3933     0.62
A_0     C     0.5547     0.2705     0.7716
A_2     C     0.4516     0.9157     0.2003
A_2     C     0.1392     0.4388     0.9963
A_3     C     0.002     0.2774     0.2814
A_0     C     0.214     0.0341     0.4024
A_0     C     0.3969     0.9667     0.4633
A_0     C     0.2982     0.7896     0.9918
A_1     C     0.7845     0.6951     0.3746
A_0     C     0.8383     0.9632     0.3924
A_3     C     0.9228     0.338     0.2372
A_1     C     0.6151     0.0606     0.561
A_0     C     0.9687     0.858     0.304
A_3     C     0.4377     0.0584     0.8323
A_2     C     0.4972     0.4791     0.1299
A_3     C     0.0098     0.0822     0.9022
A_3     C     0.4272     0.371     0.928
A_0     C     0.945     0.5596     0.5741
A_2     C     0.8903     0.9988     0.5318
A_1     C     0.255     0.076     0.7961
A_3     C     0.054     0.5265     0.2588
A_0     C     0.0795     0.6839     0.5204
A_0     C     0.9773     0.6778     0.5579
A_2     C     0.2694     0.468     0.7256
A_3     C     0.231     0.4158     0.8371
A_3     C     0.4046     0.7266     0.9429
A_1     C     0.8519     0.4955     0.7128
A_2     C     0.1203     0.4544     0.3945
A_0     C     0.1012     0.8255     0.4445
A_3     C     0.2164     0.2186     0.4119
A_0     C     0.9899     0.834     0.4815
A_3     C     0.7105     0.6907     0.8563
A_3     C     0.6551     0.2899     0.1557
A_1     C     0.5298     0.9425     0.2553
A_2     C     0.7894     0.3126     0.8719
A_1     C     0.9884     0.701     0.3946
A_3     C     0.603     0.8269     0.1021
A_1     C     0.0874     0.0521     0.493
A_1     C     0.9634     0.2964     0.5126
A_0     C     0.6028     0.5795     0.1814
A_0     C     0.8986     0.8957     0.3574
A_2     C     0.8881     0.2298     0.8633
A_1     C     0.3924     0.0381     0.2839
A_0     C     0.9673     0.2598     0.5843
A_2     C     0.1417     0.9069     0.2586
A_0     C     0.8095     0.5476     0.6037
A_1     C     0.0438     0.5104     0.2027
A_2     C     0.5931     0.833     0.8663
A_2     C     0.4168     0.0605     0.2618
A_0     C     0.5794     0.73     0.1479
A_1     C     0.1735     0.6075     0.6633
A_3     C     0.0113     0.3314     0.1443
A_0     C     0.1006     0.3658     0.43
A_1     C     0.2506     0.497     0.7316
A_0     C     0.6538     0.7185     0.0956
A_0     C     0.6296     0.3037     0.786
A_1     C     0.2639     0.9603     0.4144
A_1     C     0.2416     0.6044     0.0403
A_1     C     0.1086     0.5844     0.7852
A_0     C     0.8782     0.1214     0.141
A_2     C     0.6759     0.7381     0.7816
A_0     C     0.0225     0.174     0.2118
A_1     C     0.598     0.1562     0.8085
A_0     C     0.2138     0.3367     0.0196
A_0     C     0.5363     0.0653     0.3446
A_0     C     0.6822     0.4166     0.5415
A_1     C     0.547     0.1848     0.097
A_2     C     0.515     0.1842     0.327
A_3     C     0.7606     0.1455     0.3951
A_2     C     0.0566     0.2707     0.663
A_0     C     0.4511     0.537     0.2028
A_0     C     0.7597     0.226     0.216
A_1     C     0.7053     0.1175     0.7032
A_3     C     0.3635     0.7626     0.2284
A_1     C     0.0818     0.008     0.9588
A_2     C     0.6102     0.6855     0.2512
A_2     C     0.0177     0.3616     0.0971
A_2     C     0.775     0.8318     0.8175
A_3     C     0.5352     0.604     0.8932
A_2     C     0.1664     0.4819     0.7194
A_2     C     0.0817     0.8186     0.171
A_3     C     0.0864     0.39     0.9084
A_0     C     0.3783     0.6089     0.2608
A_0     C     0.8396     0.8669     0.2897
A_2     C     0.0991     0.7406     0.5114
A_2     C     0.7818     0.6598     0.7074
A_0     C     0.7238     0.314     0.257
A_2     C     0.794     0.1627     0.1275
A_1     C     0.9807     0.2278     0.8683
A_1     C     0.7876     0.6747     0.3176
A_3     C     0.6757     0.9928     0.6564
A_0     C     0.9695     0.0396     0.9712
A_2     C     0.2912     0.1526     0.161
A_2     C     0.5683     0.414     0.9969
A_3     C     0.1488     0.8333     0.7985
A_0     C     0.4475     0.7912     0.7422
A_0     C     0.8051     0.5544     0.2637
A_0     C     0.006     0.9615     0.4634
A_0     C     0.7049     0.6488     0.8644
A_2     C     0.0741     0.4123     0.2486
A_3     C     0.198     0.1906     0.1704
A_1     C     0.2957     0.4539     0.2122
A_3     C     0.3638     0.2658     0.1906
A_2     C     0.2024     0.3058     0.8656
A_2     C     0.4661     0.8971     0.6615
A_1     C     0.9852     0.5299     0.6675
A_1     C     0.8655     0.6244     0.4221
A_1     C     0.0781     0.6583     0.2434
A_3     C     0.0069     0.4912     0.7171
A_3     C     0.723     0.0907     0.7831
A_3     C     0.5258     0.0445     0.5096
A_0     C     0.462     0.2523     0.3281
A_2     C     0.2323     0.3004     0.1514
A_0     C     0.5696     0.8972     0.358
A_2     C     0.4596     0.8861     0.6525
A_2     C     0.6158     0.6451     0.3888
A_0     C     0.0913     0.4685     0.4599
A_3     C     0.4432     0.3429     0.5734
A_2     C     0.2005     0.9882     0.0067
A_1     C     0.0289     0.2121     0.0521
A_2     C     0.5941     0.4956     0.8568
A_2     C     0.596     0.0897     0.0924
A_1     C     0.4998     0.1116     0.6328
A_1     C     0.6715     0.4678     0.2948
A_1     C     0.8526     0.432     0.7574
A_0     C     0.0138     0.9137     0.2712
A_0     C     0.1805     0.9643     0.9455
A_3     C     0.6738     0.6136     0.9655
A_3     C     0.2225     0.5804     0.6842
A_3     C     0.5068     0.2455     0.1768
A_1     C     0.7949     0.2581     0.7296
A_1     C     0.3137     0.199     0.9084
A_2     C     0.2613     0.5366     0.4392
A_0     C     0.2609     0.2199     0.7074
A_1     C     0.9694     0.7394     0.1406
A_1     C     0.3949     0.0946     0.597
A_3     C     0.4117     0.4611     0.399
A_2     C     0.228     0.7407     0.3632
A_3     C     0.0118     0.3838     0.3022
A_2     C     0.3825     0.9051     0.5787
A_2     C     0.1696     0.3422     0.1346
A_1     C     0.9519     0.6623     0.0839
A_0     C     0.8024     0.1476     0.7799
A_3     C     0.8243     0.873     0.056
A_3     C     0.7174     0.6228     0.9965
A_0     C     0.3105     0.5332     0.8245
A_1     C     0.0294     0.8886     0.0638
A_2     C     0.0942     0.4112     0.1206
A_3     C     0.5324     0.565     0.8848
A_0     C     0.4382     0.0036     0.8144
A_0     C     0.9818     0.9674     0.8871
A_2     C     0.632     0.414     0.224
A_2     C     0.8043     0.7021     0.8376
A_0     C     0.2404     0.6804     0.1199
A_2     C     0.6269     0.3016     0.8463
A_0     C     0.8239     0.0589     0.5904
A_0     C     0.6884     0.8783     0.4391
A_3     C     0.1128     0.5561     0.8292
A_2     C     0.3563     0.4699     0.5551
A_2     C     0.7724     0.7501     0.8571
A_0     C     0.9851     0.2416     0.6996
A_3     C     0.1034     0.9292     0.3714
A_0     C     0.9632     0.3901     0.9969
A_1     C     0.0187     0.0824     0.835
A_3     C     0.7246     0.3292     0.2722
A_1     C     0.0431     0.6388     0.0283
A_2     C     0.644     0.7761     0.1848
A_3     C     0.7494     0.3939     0.5395
A_2     C     0.9219     0.3359     0.7287
A_2     C     0.7682     0.9469     0.0301
A_1     C     0.3412     0.0392     0.6616
A_1     C     0.6473     0.2926     0.4076
A_0     C     0.3533     0.574     0.7385
A_3     C     0.3994     0.6024     0.6835
A_0     C     0.09     0.6341     0.5673
A_3     C     0.5563     0.2151     0.324
A_0     C     0.3527     0.3422     0.0726
A_1     C     0.8139     0.2359     0.7313
A_2     C     0.426     0.3103     0.6508
A_1     C     0.2982     0.2715     0.9541
A_1     C     0.8327     0.1229     0.7717
A_2     C     0.4696     0.374     0.7506
A_2     C     0.975     0.8124     0.3728
A_0     C     0.0763     0.5138     0.8265
A_3     C     0.7297     0.4692     0.1134
A_3     C     0.7565     0.4973     0.0479
A_2     C     0.8249     0.802     0.628
A_0     C     0.8758     0.7198     0.8939
A_0     C     0.9525     0.0649     0.7569
A_2     C     0.9643     0.5708     0.5409
A_3     C     0.5134     0.156     0.6991
A_1     C     0.68     0.3389     0.4525
A_3     C     0.5528     0.4298     0.3119
A_3     C     0.0622     0.3017     0.9138
A_2     C     0.9488     0.5343     0.0778
A_0     C     0.1292     0.048     0.9679
A_3     C     0.7626     0.0001     0.0561
A_2     C     0.8615     0.075     0.2245
A_0     C     0.562     0.3333     0.0156
A_1     C     0.4742     0.4586     0.2798
A_3     C     0.8349     0.986     0.3318
A_1     C     0.9559     0.8928     0.103
A_3     C     0.6825     0.5393     0.3227
A_3     C     0.6147     0.0898     0.7388
A_1     C     0.1981     0.4789     0.2274
A_2     C     0.0322     0.0096     0.072
A_1     C     0.3712     0.0244     0.4362
A_3     C     0.8875     0.2109     0.1864
A_3     C     0.9899     0.0373     0.9624
A_2     C     0.0273     0.0786     0.3399
A_3     C     0.1048     0.5012     0.0225
A_2     C     0.8464     0.8296     0.1636
A_2     C     0.1314     0.0405     0.7779
A_0     C     0.6768     0.1269     0.3629
A_3     C     0.0297     0.799     0.3583
A_0     C     0.669     0.67     0.6582
