MAT-99

loop_
_symmetry_equiv_pos_as_xyz
  x,y,z
_cell_length_a          47.9666
_cell_length_b          24.884
_cell_length_c          22.601
_cell_angle_alpha       90.0000
_cell_angle_beta        90.0000
_cell_angle_gamma       90.0000
loop_
_atom_site_label
_atom_site_type_symbol
_atom_site_fract_x
_atom_site_fract_y
_atom_site_fract_z
A_3     C     0.8508     0.9769     0.572
A_0     C     0.0691     0.7283     0.8623
A_1     C     0.5699     0.252     0.083
A_2     C     0.2532     0.2493     0.8256
A_1     C     0.2014     0.9114     0.4109
A_1     C     0.72     0.7994     0.2958
A_0     C     0.2957     0.7488     0.6178
A_1     C     0.6611     0.6639     0.6579
A_2     C     0.8623     0.3465     0.7519
A_3     C     0.8909     0.1503     0.6941
A_2     C     0.9925     0.3713     0.7667
A_0     C     0.456     0.5307     0.6551
A_2     C     0.3445     0.3475     0.4914
A_0     C     0.4531     0.5565     0.0238
A_2     C     0.0065     0.7713     0.5926
A_1     C     0.3267     0.5236     0.3453
A_0     C     0.9868     0.3633     0.1331
A_3     C     0.5079     0.9784     0.2387
A_3     C     0.5134     0.1409     0.3952
A_1     C     0.3317     0.8069     0.2619
A_3     C     0.4706     0.6458     0.6573
A_3     C     0.2488     0.9187     0.4443
A_2     C     0.7477     0.4701     0.1258
A_2     C     0.5987     0.3557     0.3571
A_3     C     0.4679     0.711     0.489
A_3     C     0.6199     0.6821     0.0679
A_2     C     0.8049     0.0476     0.3656
A_1     C     0.943     0.1902     0.0345
A_3     C     0.4736     0.9015     0.6392
A_3     C     0.0474     0.4168     0.3922
A_0     C     0.8496     0.0768     0.1212
A_1     C     0.2032     0.0572     0.0879
A_2     C     0.4587     0.7737     0.0102
A_0     C     0.4783     0.1625     0.9286
A_2     C     0.8832     0.7896     0.077
A_2     C     0.8701     0.9021     0.7393
A_0     C     0.7918     0.5711     0.1254
A_2     C     0.0682     0.5352     0.6075
A_1     C     0.7043     0.1239     0.5433
A_0     C     0.9339     0.8477     0.7142
A_0     C     0.9684     0.1288     0.8137
A_2     C     0.1453     0.7692     0.5582
A_3     C     0.819     0.3187     0.4144
A_2     C     0.7847     0.7488     0.9709
A_0     C     0.4107     0.2403     0.7482
A_1     C     0.1007     0.256     0.6119
A_0     C     0.433     0.8488     0.5681
A_3     C     0.8809     0.5068     0.1594
A_3     C     0.1355     0.0562     0.3016
A_1     C     0.5367     0.8051     0.5913
A_2     C     0.7016     0.1604     0.0138
A_3     C     0.3177     0.4382     0.0404
A_1     C     0.0241     0.8845     0.8423
A_2     C     0.1097     0.9685     0.7072
A_1     C     0.1249     0.3038     0.6274
A_0     C     0.1707     0.8841     0.032
A_0     C     0.4458     0.6323     0.4389
A_3     C     0.3187     0.1685     0.7826
A_2     C     0.0688     0.8985     0.7245
A_2     C     0.764     0.7771     0.4993
A_0     C     0.6106     0.1495     0.482
A_0     C     0.9286     0.5192     0.8149
A_2     C     0.4856     0.5308     0.3148
A_2     C     0.3361     0.4731     0.4668
A_2     C     0.059     0.6459     0.4547
A_2     C     0.6739     0.9819     0.9447
A_1     C     0.3232     0.8806     0.2303
A_2     C     0.5512     0.8928     0.674
A_2     C     0.7467     0.3008     0.856
A_1     C     0.041     0.9605     0.9449
A_1     C     0.9578     0.571     0.4341
A_2     C     0.701     0.7779     0.5912
A_3     C     0.6982     0.1876     0.5749
A_2     C     0.4163     0.9329     0.7593
A_0     C     0.7219     0.9246     0.1702
A_2     C     0.6125     0.627     0.6449
A_1     C     0.6027     0.7057     0.265
A_1     C     0.3201     0.2843     0.2887
A_3     C     0.8371     0.2521     0.8911
A_2     C     0.7463     0.5354     0.3287
A_1     C     0.9287     0.9404     0.6103
A_2     C     0.5205     0.5325     0.6182
A_2     C     0.0285     0.4923     0.5418
A_2     C     0.0355     0.1969     0.0484
A_0     C     0.933     0.4111     0.3588
A_2     C     0.9265     0.0455     0.7485
A_3     C     0.934     0.0982     0.9041
A_0     C     0.9247     0.9103     0.3166
A_1     C     0.998     0.6138     0.0019
A_2     C     0.6112     0.4475     0.1591
A_0     C     0.0626     0.592     0.7615
A_0     C     0.5979     0.1446     0.0476
A_2     C     0.9329     0.7344     0.3856
A_0     C     0.6021     0.588     0.1761
A_1     C     0.7192     0.5257     0.0436
A_2     C     0.8475     0.2663     0.8989
A_0     C     0.7558     0.9499     0.8368
A_3     C     0.4827     0.185     0.1831
A_3     C     0.8797     0.3904     0.8457
A_2     C     0.6062     0.3233     0.1565
A_0     C     0.9141     0.9698     0.2529
A_1     C     0.343     0.9342     0.2988
A_2     C     0.4033     0.9084     0.3991
A_2     C     0.8722     0.8231     0.7349
A_1     C     0.7845     0.4234     0.8258
A_1     C     0.9369     0.9182     0.2382
A_1     C     0.2627     0.4978     0.0413
A_2     C     0.659     0.0762     0.1608
A_2     C     0.2132     0.6277     0.2187
A_2     C     0.7113     0.7893     0.913
A_3     C     0.6497     0.0157     0.5871
A_3     C     0.0622     0.3996     0.3806
A_0     C     0.5665     0.894     0.5497
A_0     C     0.0187     0.5827     0.0586
A_2     C     0.4266     0.3943     0.0341
A_2     C     0.0363     0.4933     0.0749
A_2     C     0.0396     0.9445     0.8195
A_1     C     0.8203     0.312     0.4401
A_2     C     0.7879     0.4985     0.4244
A_1     C     0.7279     0.5945     0.8591
A_1     C     0.5543     0.4167     0.4532
A_0     C     0.0629     0.697     0.513
A_3     C     0.8963     0.7718     0.8139
A_2     C     0.0767     0.8602     0.9086
A_3     C     0.4676     0.9479     0.1578
A_3     C     0.8682     0.5953     0.5385
A_1     C     0.5371     0.8716     0.9999
A_3     C     0.5903     0.6922     0.1521
A_0     C     0.0005     0.0283     0.1692
A_2     C     0.368     0.5754     0.7201
A_1     C     0.8683     0.2055     0.8604
A_1     C     0.1151     0.0369     0.2052
A_0     C     0.1915     0.1201     0.7558
A_0     C     0.0063     0.2531     0.7358
A_0     C     0.809     0.3981     0.0142
A_0     C     0.1111     0.8764     0.6343
A_2     C     0.9039     0.1442     0.7032
A_3     C     0.5902     0.4271     0.8438
A_0     C     0.8182     0.0825     0.5744
A_3     C     0.5406     0.7402     0.4856
A_0     C     0.8601     0.1086     0.4739
A_3     C     0.963     0.2517     0.3869
A_2     C     0.7444     0.8417     0.7099
A_1     C     0.5779     0.1058     0.7951
A_2     C     0.8805     0.1358     0.527
A_0     C     0.0971     0.749     0.7865
A_1     C     0.1171     0.2047     0.8866
A_3     C     0.0752     0.2437     0.0634
A_0     C     0.1018     0.5614     0.5602
A_1     C     0.531     0.6333     0.4715
A_3     C     0.9081     0.866     0.6782
A_0     C     0.5751     0.0847     0.8048
A_2     C     0.8888     0.9099     0.2924
A_3     C     0.2051     0.0919     0.6571
A_3     C     0.5349     0.1593     0.6059
A_2     C     0.326     0.6296     0.832
A_1     C     0.8006     0.2616     0.0979
A_1     C     0.423     0.9725     0.288
A_2     C     0.2063     0.2774     0.3959
A_2     C     0.8652     0.6149     0.2933
A_3     C     0.5004     0.2908     0.7848
A_3     C     0.7024     0.9019     0.7367
A_2     C     0.1976     0.5844     0.7911
A_3     C     0.9607     0.9086     0.7299
A_1     C     0.8359     0.8743     0.4782
A_0     C     0.6786     0.3507     0.7784
A_0     C     0.8594     0.2807     0.0772
A_0     C     0.8537     0.0216     0.9536
A_3     C     0.492     0.2856     0.4017
A_3     C     0.9208     0.4779     0.9132
A_3     C     0.2975     0.9525     0.9093
A_3     C     0.0869     0.0834     0.897
A_3     C     0.0756     0.5096     0.0693
A_3     C     0.9818     0.3188     0.894
A_3     C     0.5182     0.4283     0.671
A_3     C     0.7197     0.8386     0.0514
A_3     C     0.179     0.3698     0.6931
A_3     C     0.7121     0.2566     0.9494
A_3     C     0.4385     0.6047     0.7532
A_3     C     0.4212     0.2845     0.9295
A_3     C     0.0094     0.9493     0.7044
A_3     C     0.2903     0.147     0.6817
A_3     C     0.3587     0.1138     0.1634
A_3     C     0.2041     0.0548     0.8456
A_3     C     0.5694     0.2805     0.8811
A_3     C     0.9882     0.6821     0.963
A_3     C     0.715     0.1521     0.1694
A_3     C     0.4756     0.4726     0.6724
A_3     C     0.1518     0.3474     0.3632
A_3     C     0.1019     0.5271     0.63
A_3     C     0.4998     0.8834     0.7029
A_3     C     0.4024     0.7662     0.3787
A_3     C     0.4678     0.3062     0.9714
A_3     C     0.7202     0.6768     0.5382
A_3     C     0.0741     0.5228     0.0143
A_3     C     0.4234     0.2537     0.262
A_3     C     0.1971     0.6673     0.3331
A_3     C     0.7022     0.2481     0.9322
A_3     C     0.6958     0.1661     0.8962
A_3     C     0.0562     0.4826     0.5069
A_3     C     0.2686     0.6018     0.8428
A_3     C     0.2916     0.1979     0.232
A_3     C     0.1883     0.5502     0.5982
A_3     C     0.9802     0.2635     0.427
A_3     C     0.6854     0.2822     0.7737
A_3     C     0.1269     0.9761     0.4226
A_3     C     0.8095     0.1035     0.8792
A_3     C     0.6885     0.0993     0.8394
A_3     C     0.9149     0.3523     0.1418
A_3     C     0.6447     0.5902     0.2112
A_3     C     0.1493     0.4815     0.3769
A_3     C     0.1975     0.4566     0.6099
A_3     C     0.5502     0.8949     0.537
A_3     C     0.849     0.9153     0.8207
A_3     C     0.104     0.0694     0.1448
A_3     C     0.9638     0.2249     0.7193
A_3     C     0.3394     0.9495     0.706
A_3     C     0.4798     0.6881     0.6818
A_3     C     0.9884     0.5512     0.0175
A_3     C     0.7056     0.7102     0.0946
A_3     C     0.8809     0.155     0.1091
A_3     C     0.1561     0.1016     0.158
A_3     C     0.5481     0.9181     0.6431
A_3     C     0.4198     0.2841     0.2296
A_3     C     0.079     0.285     0.6947
A_3     C     0.7901     0.0232     0.5056
A_3     C     0.716     0.4914     0.5485
A_3     C     0.9718     0.9326     0.2842
A_3     C     0.1814     0.0345     0.2936
A_3     C     0.3376     0.888     0.4221
A_3     C     0.7618     0.1533     0.6469
A_3     C     0.0545     0.1718     0.3067
A_3     C     0.1775     0.9206     0.0392
A_3     C     0.4229     0.9194     0.7201
A_3     C     0.4992     0.0725     0.3054
A_3     C     0.8187     0.521     0.9188
A_3     C     0.4054     0.3407     0.4585
A_3     C     0.9977     0.9989     0.2502
A_3     C     0.3423     0.9159     0.4815
A_3     C     0.4554     0.5747     0.3534
A_3     C     0.4396     0.495     0.6319
A_3     C     0.6101     0.6924     0.4864
A_3     C     0.3303     0.9838     0.4064
A_3     C     0.782     0.3867     0.2739
A_3     C     0.1242     0.4184     0.7474
A_3     C     0.2062     0.13     0.2151
A_3     C     0.3308     0.9019     0.4508
A_3     C     0.7532     0.992     0.0644
A_3     C     0.9221     0.0657     0.1204
A_3     C     0.0978     0.6522     0.0037
A_3     C     0.0525     0.5635     0.5476
A_3     C     0.1993     0.6783     0.6185
A_3     C     0.9299     0.6285     0.8
A_3     C     0.1812     0.8504     0.1515
A_3     C     0.8373     0.2584     0.3548
A_3     C     0.1949     0.4697     0.4453
A_3     C     0.7692     0.3387     0.3479
A_3     C     0.4225     0.5393     0.3753
A_3     C     0.7538     0.4089     0.3299
A_3     C     0.1126     0.4354     0.3355
A_3     C     0.8088     0.6979     0.7508
A_3     C     0.6968     0.9947     0.5215
A_3     C     0.6018     0.1875     0.1306
A_3     C     0.4808     0.4773     0.3341
A_3     C     0.1001     0.256     0.3656
A_3     C     0.3678     0.1524     0.72
A_3     C     0.7306     0.1829     0.3953
A_3     C     0.307     0.3702     0.4234
A_3     C     0.2456     0.5147     0.2628
A_3     C     0.7161     0.2204     0.5036
A_3     C     0.887     0.7045     0.4115
A_3     C     0.7501     0.0165     0.9277
A_3     C     0.1325     0.826     0.0482
A_3     C     0.5216     0.0536     0.3435
A_3     C     0.8646     0.6729     0.8168
A_3     C     0.4454     0.6288     0.5349
A_3     C     0.1687     0.0197     0.9674
A_3     C     0.2375     0.2807     0.6567
A_3     C     0.0505     0.8172     0.2294
A_3     C     0.6402     0.6437     0.1865
A_3     C     0.417     0.8675     0.9751
A_3     C     0.8326     0.4945     0.261
A_3     C     0.1685     0.3828     0.5643
A_3     C     0.5434     0.7837     0.8768
A_3     C     0.5162     0.7414     0.6355
A_3     C     0.1684     0.3664     0.0818
A_3     C     0.9003     0.3027     0.7223
A_3     C     0.6297     0.6162     0.3244
A_3     C     0.2372     0.8792     0.633
A_3     C     0.3866     0.3642     0.3435
A_3     C     0.0333     0.609     0.5514
A_3     C     0.2165     0.1711     0.8667
A_3     C     0.6041     0.6583     0.6693
A_3     C     0.438     0.8789     0.4026
