MAT-56

loop_
_symmetry_equiv_pos_as_xyz
  x,y,z
_cell_length_a          34.1985
_cell_length_b          20.4324
_cell_length_c          39.6208
_cell_angle_alpha       90.0000
_cell_angle_beta        90.0000
_cell_angle_gamma       90.0000
loop_
_atom_site_label
_atom_site_type_symbol
_atom_site_fract_x
_atom_site_fract_y
_atom_site_fract_z
A_3     C     0.3515     0.0719     0.0245
A_0     C     0.6817     0.2497     0.3993
A_3     C     0.3036     0.2216     0.8674
A_0     C     0.0864     0.8827     0.7557
A_1     C     0.9893     0.0194     0.1061
A_1     C     0.8215     0.9661     0.6454
A_3     C     0.3953     0.4855     0.4368
A_3     C     0.5728     0.3172     0.4819
A_3     C     0.212     0.4941     0.0227
A_3     C     0.9357     0.308     0.5968
A_3     C     0.0758     0.8957     0.6083
A_3     C     0.6085     0.6179     0.6954
A_3     C     0.3637     0.811     0.0676
A_3     C     0.9362     0.3931     0.8112
A_3     C     0.7714     0.2513     0.0335
A_3     C     0.8097     0.6194     0.8841
A_3     C     0.2452     0.9871     0.8045
A_3     C     0.5903     0.2033     0.5456
A_3     C     0.2582     0.8718     0.0412
A_3     C     0.0016     0.1866     0.1363
A_3     C     0.8759     0.8579     0.313
A_3     C     0.6834     0.3004     0.7338
A_3     C     0.7885     0.2717     0.2905
A_3     C     0.4052     0.3244     0.0887
A_3     C     0.1841     0.0053     0.6922
A_3     C     0.909     0.5044     0.481
A_3     C     0.8972     0.1108     0.1894
A_3     C     0.4012     0.8006     0.4108
A_3     C     0.4473     0.9786     0.6863
A_3     C     0.8127     0.3635     0.8888
A_3     C     0.056     0.6873     0.4275
A_3     C     0.2375     0.0757     0.5093
A_3     C     0.1644     0.6155     0.3679
A_3     C     0.7231     0.3551     0.6507
A_3     C     0.0119     0.5645     0.3953
A_3     C     0.6346     0.5903     0.3625
A_3     C     0.5082     0.07     0.4577
A_3     C     0.4992     0.29     0.1276
A_3     C     0.3392     0.2242     0.6934
A_3     C     0.3687     0.1078     0.6859
A_3     C     0.4768     0.0172     0.1372
A_3     C     0.0217     0.7747     0.9153
A_3     C     0.2106     0.4131     0.6531
A_3     C     0.4224     0.3697     0.6561
A_3     C     0.265     0.0854     0.6887
A_3     C     0.9133     0.1612     0.7175
A_3     C     0.8225     0.8899     0.7225
A_3     C     0.6465     0.2492     0.7349
A_3     C     0.799     0.4487     0.7895
A_3     C     0.2045     0.3753     0.0943
A_3     C     0.4798     0.3768     0.7919
A_3     C     0.664     0.2546     0.4377
A_3     C     0.0143     0.2488     0.3431
A_3     C     0.7792     0.3609     0.7592
A_3     C     0.253     0.3824     0.1655
A_3     C     0.2582     0.3671     0.192
A_3     C     0.0415     0.7457     0.3643
A_3     C     0.7832     0.6622     0.0558
A_3     C     0.9649     0.6821     0.3639
A_3     C     0.5972     0.7928     0.3006
A_3     C     0.6492     0.8082     0.5224
A_3     C     0.1523     0.2361     0.1035
A_3     C     0.841     0.858     0.3962
A_3     C     0.6087     0.418     0.7616
A_3     C     0.3559     0.6478     0.4457
A_3     C     0.6767     0.8786     0.972
A_3     C     0.6819     0.2892     0.784
A_3     C     0.0933     0.4567     0.6829
A_3     C     0.8975     0.8569     0.5872
A_3     C     0.6939     0.5319     0.1228
A_3     C     0.9263     0.5428     0.1964
A_3     C     0.0525     0.0316     0.4394
A_3     C     0.2345     0.445     0.6506
A_3     C     0.4682     0.7531     0.5226
A_3     C     0.1999     0.0122     0.3076
A_3     C     0.2311     0.1785     0.8015
A_3     C     0.5948     0.6636     0.0694
A_3     C     0.9983     0.4594     0.2801
A_3     C     0.354     0.6868     0.7728
A_3     C     0.1972     0.331     0.3185
A_3     C     0.6123     0.3425     0.3415
A_3     C     0.6789     0.6683     0.9212
A_3     C     0.375     0.5324     0.4517
A_3     C     0.7482     0.5964     0.5207
A_3     C     0.8782     0.3201     0.8353
A_3     C     0.5894     0.7836     0.364
A_3     C     0.954     0.4954     0.716
A_3     C     0.5974     0.5973     0.1011
A_3     C     0.6496     0.6002     0.026
A_3     C     0.5252     0.7071     0.5393
A_3     C     0.9112     0.5121     0.7491
A_3     C     0.188     0.2267     0.5197
A_3     C     0.9537     0.8091     0.3666
A_3     C     0.9771     0.8042     0.0055
A_3     C     0.4944     0.4369     0.3522
A_3     C     0.1981     0.5942     0.9477
A_3     C     0.7674     0.1633     0.3698
A_3     C     0.7443     0.3318     0.5044
A_3     C     0.2715     0.1104     0.7417
A_3     C     0.6532     0.0355     0.6364
A_3     C     0.2785     0.6806     0.4734
A_3     C     0.1638     0.2339     0.7414
A_3     C     0.3537     0.4964     0.7031
A_3     C     0.5675     0.5413     0.2121
A_3     C     0.0072     0.0427     0.6337
A_3     C     0.7261     0.7101     0.6967
A_3     C     0.3349     0.9712     0.6489
A_3     C     0.5251     0.5242     0.8854
A_3     C     0.7638     0.0325     0.6483
A_3     C     0.1879     0.4922     0.0547
A_3     C     0.1581     0.5208     0.3922
A_3     C     0.5193     0.5989     0.9385
A_3     C     0.8738     0.4037     0.8158
A_3     C     0.3478     0.7884     0.5638
A_3     C     0.1496     0.8779     0.4868
A_3     C     0.4657     0.5484     0.3514
A_3     C     0.9728     0.6474     0.68
A_3     C     0.8261     0.9308     0.8858
A_3     C     0.0524     0.3475     0.545
A_3     C     0.1832     0.3324     0.4964
A_3     C     0.5571     0.3722     0.4454
A_3     C     0.8     0.3509     0.6788
A_3     C     0.15     0.2353     0.7876
A_3     C     0.5211     0.5867     0.1313
A_3     C     0.4282     0.1133     0.0953
A_3     C     0.027     0.673     0.1419
A_3     C     0.1688     0.5313     0.3098
A_3     C     0.869     0.2907     0.8456
A_3     C     0.1387     0.267     0.9788
A_3     C     0.26     0.6059     0.171
A_3     C     0.9132     0.436     0.9905
A_3     C     0.3972     0.2004     0.9857
A_3     C     0.0353     0.1223     0.4123
A_3     C     0.9774     0.3267     0.2164
A_3     C     0.7418     0.2956     0.952
A_3     C     0.4765     0.1157     0.1019
A_3     C     0.7567     0.14     0.9163
A_3     C     0.4441     0.7364     0.1554
A_3     C     0.2483     0.6817     0.8456
A_3     C     0.7736     0.5435     0.9849
A_3     C     0.9486     0.7572     0.3518
A_3     C     0.9469     0.0338     0.7988
A_3     C     0.9239     0.2055     0.4062
A_3     C     0.0526     0.0845     0.1066
A_3     C     0.4722     0.2323     0.7838
A_3     C     0.522     0.7041     0.5701
A_3     C     0.7818     0.0992     0.2833
A_3     C     0.0075     0.868     0.0647
A_3     C     0.2402     0.8438     0.4744
A_3     C     0.2369     0.86     0.5099
A_3     C     0.0699     0.982     0.6214
A_3     C     0.9195     0.448     0.5592
A_3     C     0.8002     0.969     0.061
A_3     C     0.4278     0.4541     0.438
A_3     C     0.7255     0.8209     0.3324
A_3     C     0.9695     0.5406     0.9462
A_3     C     0.5114     0.1582     0.294
A_3     C     0.7326     0.3586     0.7981
A_3     C     0.7559     0.219     0.1297
A_3     C     0.3074     0.9795     0.046
A_3     C     0.6199     0.1904     0.7632
A_3     C     0.5274     0.497     0.1905
A_3     C     0.1413     0.1751     0.6778
A_3     C     0.244     0.4559     0.7653
A_3     C     0.9878     0.4449     0.3223
A_3     C     0.7065     0.231     0.3655
A_3     C     0.9586     0.5226     0.3568
A_3     C     0.3467     0.1513     0.4578
A_3     C     0.3141     0.3768     0.4496
A_3     C     0.9255     0.743     0.019
A_3     C     0.8377     0.375     0.9412
A_3     C     0.7823     0.4621     0.8914
A_3     C     0.7171     0.7977     0.093
A_3     C     0.8434     0.9064     0.1388
A_3     C     0.3135     0.4836     0.5447
A_3     C     0.676     0.142     0.3131
A_3     C     0.2255     0.2368     0.4826
A_3     C     0.0004     0.4509     0.379
A_3     C     0.4379     0.2869     0.2418
A_3     C     0.7788     0.6203     0.5614
A_3     C     0.0462     0.4813     0.8584
A_3     C     0.3877     0.9179     0.7484
A_3     C     0.2261     0.8923     0.921
A_3     C     0.2095     0.3974     0.3783
A_3     C     0.3321     0.1991     0.2141
A_3     C     0.8152     0.785     0.2919
A_3     C     0.8492     0.115     0.8213
A_3     C     0.6308     0.9194     0.1699
A_3     C     0.6821     0.1875     0.5128
A_3     C     0.5301     0.6619     0.0431
A_3     C     0.9717     0.1002     0.8618
A_3     C     0.6054     0.6778     0.3885
A_3     C     0.5029     0.1863     0.7012
A_3     C     0.0202     0.4938     0.097
A_3     C     0.3053     0.8645     0.4784
A_3     C     0.5402     0.9879     0.5024
