MAT-3

loop_
_symmetry_equiv_pos_as_xyz
  x,y,z
_cell_length_a          25.9574
_cell_length_b          45.151
_cell_length_c          34.654
_cell_angle_alpha       90.0000
_cell_angle_beta        90.0000
_cell_angle_gamma       90.0000
loop_
_atom_site_label
_atom_site_type_symbol
_atom_site_fract_x
_atom_site_fract_y
_atom_site_fract_z
A_1     C     0.5819     0.3764     0.8482
A_3     C     0.2872     0.6193     0.9035
A_1     C     0.4638     0.1154     0.6907
A_2     C     0.5388     0.7642     0.6055
A_1     C     0.0548     0.6126     0.6794
A_2     C     0.7071     0.1328     0.2198
A_0     C     0.7717     0.9293     0.1485
A_0     C     0.3775     0.2382     0.3083
A_0     C     0.9633     0.6133     0.5147
A_3     C     0.9375     0.0932     0.4229
A_1     C     0.135     0.9409     0.8511
A_2     C     0.8147     0.9544     0.8272
A_1     C     0.269     0.218     0.1137
A_1     C     0.7006     0.698     0.1144
A_1     C     0.7954     0.7849     0.2642
A_3     C     0.852     0.6867     0.0843
A_1     C     0.9503     0.769     0.5421
A_0     C     0.4384     0.5101     0.549
A_2     C     0.744     0.7858     0.7255
A_1     C     0.2424     0.5785     0.3725
A_2     C     0.2041     0.0597     0.472
A_3     C     0.1893     0.3527     0.5285
A_1     C     0.738     0.0018     0.7357
A_3     C     0.3299     0.767     0.3099
A_2     C     0.5215     0.6138     0.1545
A_2     C     0.1707     0.77     0.1487
A_2     C     0.537     0.7988     0.4924
A_0     C     0.5559     0.5038     0.3656
A_0     C     0.9961     0.8014     0.6084
A_2     C     0.5495     0.007     0.7866
A_1     C     0.1731     0.0271     0.4091
A_0     C     0.3874     0.1416     0.4745
A_3     C     0.8276     0.8616     0.8426
A_1     C     0.4505     0.1926     0.2825
A_3     C     0.6979     0.1464     0.187
A_1     C     0.6977     0.5294     0.3876
A_2     C     0.3018     0.9684     0.562
A_3     C     0.2631     0.3718     0.789
A_1     C     0.9445     0.0015     0.1634
A_0     C     0.152     0.9263     0.8349
A_0     C     0.2866     0.8762     0.7022
A_1     C     0.8047     0.8201     0.0374
A_1     C     0.2034     0.1061     0.8682
A_0     C     0.3447     0.7269     0.4352
A_0     C     0.0117     0.2535     0.0916
A_2     C     0.7376     0.7471     0.7225
A_3     C     0.9203     0.2794     0.4706
A_3     C     0.2656     0.1324     0.1369
A_2     C     0.8634     0.1356     0.8563
A_1     C     0.7693     0.675     0.9134
A_3     C     0.3589     0.1206     0.0194
A_1     C     0.7582     0.9304     0.0465
A_2     C     0.9202     0.7122     0.1212
A_1     C     0.7756     0.2232     0.3404
A_0     C     0.9986     0.7498     0.5794
A_1     C     0.8886     0.7769     0.1002
A_3     C     0.6118     0.133     0.216
A_0     C     0.5532     0.4615     0.4692
A_0     C     0.3857     0.7944     0.2652
A_3     C     0.5886     0.1358     0.4386
A_0     C     0.3618     0.6903     0.2599
A_2     C     0.6075     0.5826     0.8016
A_3     C     0.4067     0.4241     0.813
A_1     C     0.6946     0.5524     0.6818
A_3     C     0.4966     0.0314     0.0655
A_3     C     0.2189     0.4521     0.8033
A_2     C     0.068     0.8006     0.8005
A_0     C     0.7917     0.5653     0.7124
A_3     C     0.9734     0.6537     0.2673
A_1     C     0.5396     0.1573     0.8883
A_0     C     0.8847     0.4886     0.4958
A_2     C     0.627     0.5901     0.3639
A_2     C     0.7746     0.9561     0.2793
A_1     C     0.6074     0.3237     0.7625
A_3     C     0.5088     0.98     0.6897
A_0     C     0.9223     0.5022     0.9374
A_2     C     0.7579     0.3415     0.1274
A_2     C     0.1313     0.9397     0.9644
A_3     C     0.0599     0.7249     0.3623
A_3     C     0.1889     0.4986     0.4189
A_3     C     0.5     0.5012     0.8756
A_0     C     0.8672     0.5767     0.9285
A_0     C     0.434     0.7766     0.5092
A_3     C     0.3485     0.8879     0.5949
A_1     C     0.3638     0.8112     0.0487
A_0     C     0.4188     0.9783     0.9073
A_1     C     0.1456     0.8155     0.7891
A_1     C     0.8624     0.9423     0.5924
A_2     C     0.9465     0.2164     0.7771
A_1     C     0.0927     0.161     0.8339
A_2     C     0.1946     0.3408     0.1496
A_1     C     0.0804     0.881     0.85
A_2     C     0.0167     0.4589     0.6708
A_3     C     0.8039     0.9468     0.7327
A_3     C     0.0226     0.1806     0.5063
A_3     C     0.5312     0.6163     0.8743
A_2     C     0.448     0.1256     0.9575
A_2     C     0.5078     0.5523     0.1508
A_3     C     0.0004     0.7738     0.9075
A_3     C     0.0404     0.865     0.808
A_2     C     0.7839     0.4349     0.7891
A_2     C     0.437     0.8533     0.3407
A_1     C     0.2972     0.6199     0.2827
A_2     C     0.595     0.7815     0.9002
A_1     C     0.4738     0.5525     0.7085
A_0     C     0.9902     0.652     0.5902
A_3     C     0.6834     0.0727     0.6471
A_3     C     0.1439     0.5354     0.5851
A_0     C     0.6535     0.757     0.2494
A_2     C     0.5385     0.7612     0.6874
A_3     C     0.7829     0.501     0.3859
A_3     C     0.2835     0.8586     0.3263
A_3     C     0.9513     0.6923     0.9087
A_1     C     0.3648     0.4373     0.1117
A_1     C     0.4421     0.9551     0.0544
A_3     C     0.1054     0.2665     0.188
A_0     C     0.7079     0.2019     0.2546
A_3     C     0.5521     0.4436     0.9876
A_1     C     0.4256     0.2489     0.3972
A_3     C     0.8154     0.0336     0.5942
A_1     C     0.3182     0.4373     0.4065
A_2     C     0.1607     0.8207     0.0992
A_3     C     0.9017     0.2883     0.1185
A_3     C     0.7833     0.6138     0.3543
A_2     C     0.1759     0.9193     0.2206
A_0     C     0.075     0.8629     0.5391
A_3     C     0.268     0.9899     0.011
A_1     C     0.0007     0.3246     0.9532
A_3     C     0.4874     0.8562     0.1381
A_1     C     0.1441     0.7058     0.9868
A_2     C     0.4856     0.0465     0.2066
A_2     C     0.472     0.1278     0.5116
A_2     C     0.3072     0.7303     0.7715
A_0     C     0.4713     0.0164     0.3134
A_3     C     0.675     0.5387     0.758
A_2     C     0.0235     0.0567     0.0954
A_1     C     0.8668     0.5611     0.0478
A_1     C     0.5196     0.5513     0.6697
A_0     C     0.8163     0.9173     0.8183
A_1     C     0.7991     0.695     0.0411
A_3     C     0.3485     0.782     0.1379
A_1     C     0.4525     0.1132     0.0162
A_0     C     0.8321     0.2632     0.3867
A_1     C     0.8678     0.1265     0.5432
A_3     C     0.0988     0.9941     0.3534
A_3     C     0.3768     0.6928     0.3958
A_3     C     0.7212     0.6237     0.2606
A_3     C     0.5685     0.449     0.4639
A_1     C     0.6857     0.2153     0.4281
A_2     C     0.7116     0.3799     0.1283
A_1     C     0.5169     0.1499     0.3329
A_3     C     0.8297     0.9709     0.7752
A_0     C     0.1927     0.2772     0.0278
A_1     C     0.4865     0.4031     0.7001
A_3     C     0.0366     0.4921     0.761
A_3     C     0.9203     0.865     0.3415
A_2     C     0.9463     0.0057     0.2304
A_0     C     0.7288     0.2776     0.1489
A_1     C     0.8816     0.5822     0.8919
A_0     C     0.7299     0.2481     0.7128
A_3     C     0.4844     0.6094     0.9879
A_0     C     0.4676     0.2298     0.0641
A_0     C     0.0677     0.2327     0.222
A_3     C     0.8984     0.3435     0.0916
A_3     C     0.5527     0.2503     0.0715
A_2     C     0.5367     0.1537     0.6357
A_2     C     0.6019     0.7858     0.7347
A_1     C     0.8859     0.1754     0.0482
A_1     C     0.9499     0.9954     0.3133
A_0     C     0.7124     0.7734     0.8113
A_0     C     0.4804     0.4653     0.3703
A_2     C     0.9498     0.1514     0.4731
A_2     C     0.1688     0.2121     0.6558
A_3     C     0.8125     0.3393     0.958
A_2     C     0.4434     0.3656     0.6526
A_0     C     0.9338     0.0183     0.3199
A_1     C     0.0554     0.1916     0.4921
A_0     C     0.604     0.528     0.7774
A_1     C     0.0402     0.6635     0.3719
A_0     C     0.744     0.6411     0.6138
A_1     C     0.0876     0.3604     0.857
A_2     C     0.1481     0.1122     0.1711
A_3     C     0.4075     0.175     0.3392
A_1     C     0.5403     0.0085     0.8474
A_2     C     0.238     0.5889     0.9672
A_2     C     0.549     0.0425     0.2454
A_0     C     0.5659     0.3046     0.364
A_2     C     0.4544     0.0281     0.6699
A_0     C     0.5671     0.3545     0.5898
A_0     C     0.2565     0.9558     0.9917
A_3     C     0.63     0.9674     0.6699
A_0     C     0.8376     0.3371     0.4369
A_3     C     0.2625     0.866     0.1115
A_2     C     0.3195     0.6286     0.5987
A_2     C     0.4996     0.1821     0.0641
A_3     C     0.3595     0.2404     0.7708
A_2     C     0.5109     0.0436     0.6813
A_3     C     0.9561     0.4606     0.2528
A_0     C     0.6058     0.8536     0.2087
A_3     C     0.9304     0.943     0.5581
A_2     C     0.7055     0.7232     0.8176
A_0     C     0.9785     0.1555     0.9365
A_0     C     0.8966     0.0407     0.6463
A_2     C     0.6268     0.3094     0.0301
A_1     C     0.1457     0.4361     0.0713
A_3     C     0.063     0.2328     0.2069
A_1     C     0.4375     0.9415     0.5639
A_1     C     0.696     0.7145     0.9805
A_3     C     0.1721     0.5039     0.8374
A_2     C     0.2112     0.7923     0.3867
A_0     C     0.0776     0.7403     0.5418
A_3     C     0.6162     0.0889     0.7694
A_2     C     0.4126     0.1552     0.892
A_0     C     0.1535     0.1143     0.7762
A_2     C     0.9432     0.093     0.7631
A_3     C     0.1538     0.5673     0.7892
A_0     C     0.3457     0.5119     0.1699
A_1     C     0.0157     0.1817     0.7636
A_3     C     0.4451     0.2951     0.0112
A_3     C     0.5167     0.2036     0.3796
A_2     C     0.6518     0.222     0.0295
A_3     C     0.7759     0.3137     0.6135
A_3     C     0.2142     0.1778     0.8074
A_3     C     0.5713     0.2436     0.8952
A_3     C     0.2722     0.6936     0.5908
A_3     C     0.3269     0.063     0.5875
A_1     C     0.2731     0.4538     0.3403
A_1     C     0.6569     0.9321     0.7972
A_3     C     0.3891     0.0952     0.9024
A_1     C     0.4505     0.2595     0.0938
A_1     C     0.1291     0.342     0.8863
A_3     C     0.7468     0.6252     0.4887
A_0     C     0.4407     0.1803     0.2849
A_3     C     0.928     0.9365     0.7043
A_3     C     0.4775     0.6679     0.399
A_3     C     0.1716     0.7388     0.4725
A_2     C     0.0205     0.1222     0.0992
A_0     C     0.842     0.9755     0.1388
A_0     C     0.197     0.1599     0.9434
A_3     C     0.9483     0.3936     0.165
A_3     C     0.5611     0.9337     0.684
A_2     C     0.6901     0.8574     0.0381
A_3     C     0.1073     0.7676     0.2162
A_0     C     0.6992     0.7807     0.2564
A_1     C     0.5339     0.2713     0.4739
A_0     C     0.6633     0.7151     0.4996
A_1     C     0.1005     0.462     0.1787
A_0     C     0.0844     0.8176     0.6132
A_3     C     0.0391     0.9318     0.4852
A_3     C     0.6764     0.1776     0.0772
A_1     C     0.9168     0.9314     0.1489
A_0     C     0.7857     0.4156     0.4073
A_3     C     0.2765     0.6078     0.784
A_1     C     0.8983     0.0839     0.5147
A_1     C     0.3549     0.9378     0.8253
A_1     C     0.8103     0.0464     0.1682
A_3     C     0.1067     0.0024     0.5432
A_0     C     0.2345     0.8069     0.0516
A_3     C     0.7419     0.3901     0.426
A_2     C     0.3217     0.7612     0.3041
A_2     C     0.2182     0.1975     0.2378
A_3     C     0.7028     0.7342     0.9576
A_0     C     0.802     0.719     0.4532
A_2     C     0.6714     0.701     0.1944
A_1     C     0.2503     0.8199     0.282
A_0     C     0.3186     0.3428     0.1367
A_2     C     0.9325     0.3951     0.0035
A_3     C     0.2034     0.2098     0.9403
A_3     C     0.6612     0.1551     0.0487
A_0     C     0.3147     0.9681     0.7721
A_2     C     0.0135     0.351     0.2535
A_3     C     0.8668     0.9789     0.0878
