MAT-80

loop_
_symmetry_equiv_pos_as_xyz
  x,y,z
_cell_length_a          45.0873
_cell_length_b          25.7089
_cell_length_c          22.203
_cell_angle_alpha       90.0000
_cell_angle_beta        90.0000
_cell_angle_gamma       90.0000
loop_
_atom_site_label
_atom_site_type_symbol
_atom_site_fract_x
_atom_site_fract_y
_atom_site_fract_z
A_3     C     0.8222     0.1582     0.5955
A_0     C     0.1311     0.5872     0.9288
A_1     C     0.5028     0.2312     0.2132
A_2     C     0.3293     0.2225     0.8837
A_1     C     0.226     0.9172     0.5285
A_1     C     0.6078     0.855     0.3952
A_0     C     0.306     0.8841     0.6495
A_1     C     0.639     0.6849     0.684
A_2     C     0.8709     0.3204     0.6175
A_3     C     0.9636     0.2475     0.7143
A_2     C     0.0683     0.5018     0.7472
A_0     C     0.437     0.4554     0.7533
A_2     C     0.393     0.455     0.4633
A_0     C     0.4069     0.5415     0.9805
A_2     C     0.835     0.6323     0.4523
A_1     C     0.231     0.5777     0.4958
A_0     C     0.0253     0.4151     0.9849
A_3     C     0.3703     0.8729     0.1484
A_3     C     0.3926     0.2183     0.3954
A_1     C     0.2285     0.8606     0.299
A_3     C     0.5224     0.643     0.5985
A_3     C     0.118     0.0663     0.4029
A_2     C     0.9215     0.5668     0.9631
A_2     C     0.5835     0.4458     0.3989
A_3     C     0.4583     0.7247     0.4485
A_3     C     0.7681     0.6012     0.9668
A_2     C     0.8056     0.9621     0.3963
A_1     C     0.0474     0.196     0.0183
A_3     C     0.4458     0.8922     0.6888
A_3     C     0.1426     0.2654     0.384
A_0     C     0.8664     0.0281     0.1548
A_1     C     0.2552     0.0431     0.1209
A_2     C     0.5224     0.6715     0.9449
A_0     C     0.526     0.1636     0.8637
A_2     C     0.7798     0.7208     0.1589
A_2     C     0.9666     0.0826     0.8213
A_0     C     0.7475     0.5572     0.124
A_2     C     0.0545     0.4883     0.6659
A_1     C     0.5598     0.1377     0.414
A_0     C     0.8802     0.9801     0.6859
A_0     C     0.8796     0.1745     0.7736
A_2     C     0.1622     0.8523     0.5652
A_3     C     0.7982     0.2279     0.4457
A_2     C     0.8275     0.6981     0.1068
A_0     C     0.4328     0.274     0.6312
A_1     C     0.9885     0.283     0.5881
A_0     C     0.2775     0.8063     0.5327
A_3     C     0.8597     0.5503     0.1736
A_3     C     0.0983     0.0385     0.3526
A_1     C     0.5195     0.7777     0.5603
A_2     C     0.8834     0.1391     0.0064
A_3     C     0.3563     0.3322     0.0827
A_1     C     0.9275     0.8805     0.9908
A_2     C     0.2624     0.9233     0.7401
A_1     C     0.1886     0.3273     0.5398
A_0     C     0.1459     0.0214     0.9969
A_0     C     0.5553     0.5115     0.4405
A_3     C     0.1975     0.0907     0.6899
A_2     C     0.1612     0.9071     0.7323
A_2     C     0.8899     0.7933     0.6245
A_0     C     0.568     0.1172     0.3579
A_0     C     0.9256     0.4853     0.842
A_2     C     0.4552     0.4962     0.3124
A_2     C     0.183     0.4858     0.596
A_2     C     0.0383     0.6256     0.5105
A_2     C     0.5422     0.9997     0.0006
A_1     C     0.3385     0.9102     0.2126
A_2     C     0.4291     0.9239     0.8225
A_2     C     0.7515     0.3388     0.9219
A_1     C     0.8986     0.9077     0.9241
A_1     C     0.8345     0.636     0.5514
A_2     C     0.6566     0.7992     0.5275
A_3     C     0.6454     0.2474     0.3796
A_2     C     0.3866     0.0231     0.8256
A_0     C     0.7145     0.7912     0.2125
A_2     C     0.704     0.5494     0.5679
A_1     C     0.6496     0.7783     0.3405
A_1     C     0.165     0.2741     0.2465
A_3     C     0.9492     0.1962     0.7905
A_2     C     0.7316     0.4034     0.1678
A_1     C     0.0817     0.9405     0.637
A_2     C     0.599     0.5387     0.6522
A_2     C     0.0001     0.3879     0.6155
A_2     C     0.1055     0.3008     0.0696
A_0     C     0.97     0.267     0.1935
A_2     C     0.8987     0.0471     0.8543
A_3     C     0.9066     0.1563     0.8249
A_0     C     0.877     0.9496     0.3908
A_1     C     0.0576     0.6717     0.8435
A_2     C     0.5909     0.4034     0.0174
A_0     C     0.0942     0.7094     0.7318
A_0     C     0.5344     0.029     0.1285
A_2     C     0.7987     0.7366     0.4943
A_0     C     0.6348     0.6867     0.1555
A_1     C     0.7582     0.4112     0.0016
A_2     C     0.7773     0.1994     0.9298
A_0     C     0.7342     0.8584     0.9166
A_3     C     0.4375     0.0855     0.0086
A_3     C     0.7546     0.339     0.7259
A_2     C     0.5511     0.3731     0.2762
A_0     C     0.903     0.92     0.1779
A_1     C     0.3168     0.8063     0.3269
A_2     C     0.3061     0.9199     0.2244
A_2     C     0.9844     0.7727     0.7857
A_1     C     0.7995     0.3425     0.7884
A_1     C     0.0579     0.021     0.2277
A_1     C     0.4239     0.4497     0.1376
A_2     C     0.6636     0.0961     0.2372
A_2     C     0.3449     0.598     0.1645
A_2     C     0.6803     0.7992     0.9954
A_3     C     0.7385     0.0537     0.5454
A_3     C     0.9913     0.258     0.4302
A_0     C     0.4213     0.8104     0.549
A_0     C     0.9762     0.5752     0.9312
A_2     C     0.462     0.4315     0.0507
A_2     C     0.0466     0.41     0.0877
A_2     C     0.1062     0.7846     0.8691
A_1     C     0.7988     0.1995     0.5358
A_2     C     0.7657     0.4769     0.5996
A_1     C     0.8304     0.6079     0.8848
A_1     C     0.6233     0.4614     0.5149
A_0     C     0.1426     0.6959     0.5195
A_3     C     0.8035     0.8783     0.8474
A_2     C     0.0707     0.995     0.9199
A_3     C     0.5607     0.0229     0.0616
A_3     C     0.8289     0.4879     0.5434
A_1     C     0.5995     0.7638     0.9651
A_3     C     0.6518     0.6223     0.1434
A_0     C     0.9689     0.1189     0.3015
A_2     C     0.2142     0.6246     0.6349
A_1     C     0.8224     0.1476     0.7841
A_1     C     0.085     0.1499     0.0691
A_0     C     0.1881     0.0446     0.6181
A_0     C     0.1174     0.3092     0.7618
A_0     C     0.9556     0.4648     0.0112
A_0     C     0.0592     0.8813     0.6022
A_2     C     0.0267     0.0258     0.8618
A_3     C     0.6271     0.3445     0.7419
A_0     C     0.7481     0.0087     0.6198
A_3     C     0.5063     0.7581     0.4746
A_0     C     0.8598     0.0295     0.512
A_3     C     0.8183     0.3717     0.4274
A_2     C     0.7568     0.7382     0.7163
A_1     C     0.5064     0.0995     0.7443
A_2     C     0.9176     0.0581     0.5327
A_0     C     0.0501     0.77     0.7592
A_1     C     0.0659     0.2928     0.9011
A_3     C     0.9432     0.1985     0.0002
A_0     C     0.171     0.4372     0.6291
A_1     C     0.564     0.5533     0.4652
A_3     C     0.0609     0.9093     0.7288
A_0     C     0.6757     0.0436     0.8141
A_2     C     0.9229     0.9632     0.271
A_3     C     0.2266     0.9931     0.475
A_3     C     0.4068     0.1681     0.6404
A_2     C     0.4153     0.6885     0.8027
A_1     C     0.8488     0.1586     0.0631
A_1     C     0.3937     0.0377     0.274
A_2     C     0.2744     0.3282     0.3151
A_2     C     0.9354     0.6864     0.2194
A_3     C     0.5964     0.1872     0.8134
A_3     C     0.7567     0.9612     0.7587
A_2     C     0.1158     0.6798     0.7683
A_3     C     0.8924     0.9227     0.6629
A_1     C     0.8222     0.8005     0.373
A_0     C     0.6893     0.2832     0.7816
A_0     C     0.8303     0.1198     0.1785
A_0     C     0.922     0.8691     0.0457
A_3     C     0.3917     0.2223     0.2677
A_3     C     0.0156     0.458     0.8516
A_3     C     0.7275     0.2429     0.4304
A_3     C     0.641     0.7007     0.3025
A_3     C     0.6083     0.5802     0.4083
A_3     C     0.445     0.6065     0.1391
A_3     C     0.0993     0.4557     0.7584
A_3     C     0.2267     0.8757     0.8348
A_3     C     0.8657     0.6955     0.1708
A_3     C     0.7604     0.1839     0.1065
A_3     C     0.4725     0.7616     0.6904
A_3     C     0.2336     0.8516     0.2883
A_3     C     0.9656     0.8233     0.7933
A_3     C     0.9785     0.7043     0.0699
A_3     C     0.5435     0.6139     0.8249
A_3     C     0.6627     0.2511     0.5519
A_3     C     0.7984     0.7692     0.0412
A_3     C     0.3745     0.0912     0.333
A_3     C     0.0255     0.3258     0.773
A_3     C     0.3008     0.6268     0.4429
A_3     C     0.8945     0.0717     0.1867
A_3     C     0.5365     0.6283     0.7496
A_3     C     0.1733     0.3988     0.9586
A_3     C     0.4604     0.7736     0.83
A_3     C     0.8764     0.5563     0.7297
A_3     C     0.0451     0.8997     0.4493
A_3     C     0.7649     0.0024     0.9212
A_3     C     0.2065     0.7794     0.7686
A_3     C     0.984     0.2818     0.1866
A_3     C     0.3863     0.0073     0.2864
A_3     C     0.0228     0.4164     0.6086
A_3     C     0.1689     0.8237     0.4909
A_3     C     0.4881     0.8562     0.3009
A_3     C     0.6993     0.2097     0.282
A_3     C     0.1186     0.3545     0.4021
A_3     C     0.1362     0.7163     0.5423
A_3     C     0.6475     0.4454     0.2874
A_3     C     0.8982     0.2809     0.2319
A_3     C     0.339     0.006     0.2405
A_3     C     0.0807     0.7466     0.4867
A_3     C     0.5489     0.9508     0.8644
A_3     C     0.7727     0.9349     0.5871
A_3     C     0.2305     0.1608     0.759
A_3     C     0.2585     0.4137     0.1201
A_3     C     0.7771     0.2478     0.3516
A_3     C     0.994     0.3066     0.8287
A_3     C     0.802     0.5155     0.8773
A_3     C     0.279     0.8203     0.7974
A_3     C     0.5047     0.2441     0.127
A_3     C     0.8795     0.335     0.5505
A_3     C     0.3982     0.4616     0.2677
A_3     C     0.5263     0.5945     0.0643
A_3     C     0.1185     0.7647     0.3805
A_3     C     0.3616     0.9216     0.8923
A_3     C     0.6127     0.7914     0.959
A_3     C     0.9809     0.9486     0.0508
A_3     C     0.2954     0.9325     0.2521
A_3     C     0.0917     0.1632     0.4364
A_3     C     0.6571     0.2543     0.1523
A_3     C     0.639     0.5116     0.1172
A_3     C     0.0486     0.4498     0.8599
A_3     C     0.0012     0.2397     0.3804
A_3     C     0.6198     0.7486     0.0574
A_3     C     0.5052     0.3231     0.7577
A_3     C     0.4164     0.3637     0.1793
A_3     C     0.9986     0.2754     0.9525
A_3     C     0.2296     0.3027     0.2024
A_3     C     0.6959     0.3617     0.6205
A_3     C     0.9295     0.7943     0.5911
A_3     C     0.4151     0.2382     0.9822
A_3     C     0.9409     0.2964     0.1438
A_3     C     0.3121     0.7108     0.5266
A_3     C     0.0266     0.9763     0.4563
A_3     C     0.1318     0.8053     0.9532
A_3     C     0.9427     0.6801     0.4425
A_3     C     0.3076     0.996     0.9461
A_3     C     0.2242     0.6369     0.4469
A_3     C     0.2657     0.3687     0.9393
A_3     C     0.8427     0.8339     0.1152
A_3     C     0.977     0.2728     0.8714
A_3     C     0.4728     0.6676     0.9369
A_3     C     0.8777     0.1622     0.6857
A_3     C     0.9955     0.6961     0.6583
A_3     C     0.0302     0.2262     0.2851
A_3     C     0.458     0.3945     0.8727
A_3     C     0.5465     0.5981     0.1383
A_3     C     0.7245     0.6708     0.3593
A_3     C     0.0614     0.458     0.6405
A_3     C     0.0019     0.2309     0.51
A_3     C     0.6047     0.7263     0.9344
A_3     C     0.6793     0.9848     0.4485
A_3     C     0.851     0.1335     0.5685
A_3     C     0.5443     0.1989     0.7634
A_3     C     0.7887     0.7729     0.1547
A_3     C     0.6235     0.5672     0.3847
A_3     C     0.8575     0.4877     0.0245
A_3     C     0.3323     0.1018     0.4639
A_3     C     0.1482     0.9178     0.7355
A_3     C     0.4016     0.3732     0.4008
A_3     C     0.5286     0.8672     0.3954
A_3     C     0.1611     0.8583     0.0057
A_3     C     0.45     0.3025     0.0346
A_3     C     0.1056     0.9798     0.0636
A_3     C     0.1998     0.45     0.7612
A_3     C     0.9586     0.4448     0.9355
A_3     C     0.0529     0.8661     0.2852
A_3     C     0.2559     0.3022     0.4917
A_3     C     0.2973     0.8523     0.9599
A_3     C     0.6889     0.9338     0.1186
A_3     C     0.0646     0.0607     0.4381
A_3     C     0.2493     0.9062     0.8513
A_3     C     0.2072     0.1507     0.7787
A_3     C     0.9177     0.3162     0.26
A_3     C     0.5336     0.0265     0.1296
A_3     C     0.1251     0.5927     0.3791
A_3     C     0.5206     0.3525     0.5796
A_3     C     0.6348     0.6078     0.9354
A_3     C     0.6338     0.8639     0.1345
A_3     C     0.338     0.5243     0.8474
A_3     C     0.7669     0.9787     0.5571
A_3     C     0.1615     0.7923     0.1477
A_3     C     0.905     0.5726     0.7411
A_3     C     0.962     0.909     0.457
A_3     C     0.5129     0.5065     0.7262
A_3     C     0.9731     0.725     0.0744
A_3     C     0.015     0.216     0.5481
A_3     C     0.6914     0.8107     0.238
A_3     C     0.8121     0.6063     0.2174
A_3     C     0.3595     0.3019     0.523
A_3     C     0.1081     0.1979     0.9627
A_3     C     0.9776     0.3979     0.8503
A_3     C     0.8276     0.042     0.3021
A_3     C     0.8594     0.9419     0.1661
A_3     C     0.0867     0.3888     0.9952
