MAT-44

loop_
_symmetry_equiv_pos_as_xyz
  x,y,z
_cell_length_a          25.4396
_cell_length_b          17.8386
_cell_length_c          16.9339
_cell_angle_alpha       90.0000
_cell_angle_beta        90.0000
_cell_angle_gamma       90.0000
loop_
_atom_site_label
_atom_site_type_symbol
_atom_site_fract_x
_atom_site_fract_y
_atom_site_fract_z
A_0     C     0.2333     0.5332     0.6884
A_1     C     0.64     0.0459     0.1521
A_0     C     0.6324     0.8473     0.2898
A_3     C     0.1215     0.7808     0.6576
A_1     C     0.9432     0.7362     0.4834
A_1     C     0.6625     0.0454     0.0388
A_2     C     0.5088     0.3522     0.2546
A_3     C     0.6993     0.4864     0.2221
A_2     C     0.9881     0.7242     0.4633
A_2     C     0.8146     0.6885     0.5393
A_3     C     0.443     0.9416     0.901
A_3     C     0.966     0.9054     0.8381
A_0     C     0.1847     0.8346     0.3495
A_1     C     0.1063     0.4805     0.9989
A_1     C     0.7385     0.9789     0.4093
A_2     C     0.7197     0.0614     0.9859
A_1     C     0.6005     0.3674     0.664
A_2     C     0.4973     0.067     0.3692
A_3     C     0.2836     0.4167     0.3211
A_2     C     0.9116     0.7635     0.4809
A_1     C     0.7809     0.5079     0.0019
A_0     C     0.2873     0.4618     0.4732
A_0     C     0.3025     0.7215     0.0475
A_1     C     0.8558     0.6973     0.4639
A_2     C     0.1002     0.3636     0.412
A_3     C     0.0258     0.2455     0.2894
A_2     C     0.2397     0.0374     0.6027
A_1     C     0.429     0.1775     0.1662
A_2     C     0.9814     0.849     0.3754
A_2     C     0.4558     0.3889     0.3519
A_1     C     0.8669     0.6517     0.4926
A_1     C     0.6147     0.2566     0.3408
A_2     C     0.6398     0.6574     0.1312
A_2     C     0.418     0.672     0.6266
A_2     C     0.2827     0.9014     0.709
A_0     C     0.5534     0.4848     0.109
A_1     C     0.5493     0.3925     0.1079
A_0     C     0.0082     0.2841     0.3897
A_1     C     0.4891     0.8931     0.2316
A_2     C     0.3291     0.8094     0.4134
A_1     C     0.1493     0.8502     0.2494
A_1     C     0.6607     0.2373     0.5494
A_1     C     0.0561     0.4313     0.4004
A_0     C     0.9486     0.758     0.7898
A_1     C     0.711     0.7     0.6925
A_2     C     0.5012     0.5013     0.5292
A_1     C     0.0149     0.3354     0.4988
A_3     C     0.9455     0.2412     0.7329
A_2     C     0.9988     0.4209     0.0321
A_1     C     0.6876     0.8374     0.0068
A_0     C     0.4599     0.2538     0.3241
A_2     C     0.6702     0.5274     0.3188
A_1     C     0.6979     0.6298     0.7818
A_0     C     0.5561     0.6504     0.6448
A_2     C     0.6405     0.2466     0.9439
A_1     C     0.7386     0.9847     0.3752
A_3     C     0.1154     0.9856     0.6885
A_2     C     0.781     0.0618     0.1338
A_2     C     0.6355     0.1838     0.2049
A_3     C     0.4464     0.788     0.3108
A_3     C     0.8338     0.9967     0.1104
A_3     C     0.1245     0.3637     0.1358
A_1     C     0.3079     0.6711     0.7281
A_1     C     0.0474     0.1704     0.0759
A_2     C     0.7825     0.3491     0.9795
A_2     C     0.2104     0.1311     0.2782
A_3     C     0.2884     0.9176     0.5607
A_2     C     0.6382     0.2748     0.4795
A_0     C     0.4424     0.0042     0.1806
A_3     C     0.0978     0.3324     0.7678
A_1     C     0.2072     0.7871     0.3651
A_3     C     0.0758     0.2035     0.2934
A_0     C     0.2919     0.1657     0.3952
A_0     C     0.5247     0.6343     0.9619
A_2     C     0.7196     0.0733     0.3899
A_1     C     0.07     0.9034     0.983
A_1     C     0.7083     0.0312     0.8838
A_0     C     0.523     0.362     0.7222
A_2     C     0.4114     0.1168     0.5014
A_3     C     0.0656     0.4177     0.7764
A_1     C     0.5389     0.0055     0.8518
A_0     C     0.474     0.0381     0.3163
A_2     C     0.9067     0.9417     0.2924
A_0     C     0.7798     0.301     0.3002
A_3     C     0.4672     0.0272     0.6937
A_3     C     0.7777     0.9137     0.7616
A_1     C     0.9717     0.7371     0.4935
A_0     C     0.8614     0.7037     0.4484
A_3     C     0.8551     0.6923     0.6872
A_3     C     0.3461     0.2868     0.2345
A_2     C     0.3598     0.2614     0.6616
A_3     C     0.9888     0.1471     0.7676
A_1     C     0.9495     0.7111     0.6549
A_1     C     0.012     0.5474     0.2153
A_2     C     0.5124     0.5469     0.7886
A_2     C     0.1984     0.7155     0.2113
A_3     C     0.8418     0.7515     0.0939
A_2     C     0.9147     0.5631     0.1729
A_0     C     0.1021     0.6147     0.9196
A_0     C     0.2641     0.3802     0.8217
A_3     C     0.0565     0.6035     0.511
A_2     C     0.8881     0.2992     0.0988
A_0     C     0.8907     0.9549     0.5136
A_0     C     0.0935     0.5668     0.4503
A_2     C     0.4057     0.6499     0.8694
A_0     C     0.2797     0.7916     0.1439
A_0     C     0.3447     0.4157     0.0611
A_0     C     0.4284     0.6115     0.6309
A_1     C     0.7721     0.0284     0.9551
A_1     C     0.4634     0.1586     0.4704
A_3     C     0.4518     0.5267     0.4457
A_1     C     0.6519     0.0027     0.2468
A_2     C     0.6682     0.1646     0.7617
A_3     C     0.4553     0.8107     0.0293
A_1     C     0.357     0.0923     0.6161
A_2     C     0.2453     0.9468     0.5953
A_2     C     0.7538     0.1833     0.2246
A_1     C     0.1887     0.4977     0.7608
A_2     C     0.3576     0.1217     0.0934
A_2     C     0.106     0.8636     0.5998
A_1     C     0.1707     0.3274     0.2155
A_0     C     0.4636     0.831     0.5629
A_3     C     0.3515     0.4135     0.9001
A_3     C     0.0698     0.0706     0.5959
A_1     C     0.1516     0.6003     0.1969
A_2     C     0.597     0.0007     0.5706
A_3     C     0.1693     0.2714     0.052
A_2     C     0.0658     0.7016     0.5739
A_0     C     0.7455     0.3342     0.6293
A_2     C     0.484     0.5885     0.9646
A_0     C     0.369     0.4108     0.2235
A_3     C     0.7065     0.2978     0.8676
A_3     C     0.366     0.5058     0.4294
A_1     C     0.0979     0.0518     0.5388
A_1     C     0.7246     0.9722     0.6536
A_0     C     0.1554     0.0798     0.433
A_2     C     0.2245     0.084     0.4633
A_1     C     0.6538     0.7401     0.3639
A_0     C     0.6928     0.6112     0.8058
A_0     C     0.5661     0.6358     0.1424
A_3     C     0.2036     0.8755     0.7992
A_0     C     0.3356     0.8237     0.7272
A_0     C     0.215     0.0008     0.6372
A_1     C     0.702     0.2904     0.5715
A_2     C     0.1399     0.9409     0.0687
A_0     C     0.0191     0.9023     0.665
A_2     C     0.0089     0.9533     0.3585
A_1     C     0.3739     0.8592     0.2382
A_3     C     0.859     0.1954     0.4815
A_0     C     0.0834     0.9361     0.6196
A_2     C     0.2465     0.9308     0.5681
A_1     C     0.9057     0.2401     0.1527
A_1     C     0.4952     0.4462     0.2027
A_0     C     0.4926     0.7865     0.5904
A_3     C     0.6417     0.7815     0.436
A_2     C     0.6608     0.2207     0.8198
A_2     C     0.5894     0.4589     0.5811
A_2     C     0.8824     0.9699     0.8277
A_0     C     0.4842     0.5915     0.3824
A_3     C     0.514     0.1247     0.2501
A_2     C     0.2309     0.1021     0.0795
A_0     C     0.5212     0.7585     0.9697
A_2     C     0.312     0.6265     0.1291
A_2     C     0.7795     0.8873     0.7871
A_2     C     0.4359     0.3791     0.1762
A_1     C     0.481     0.4785     0.9272
A_3     C     0.6141     0.4775     0.3599
A_3     C     0.7425     0.6574     0.2585
A_2     C     0.0395     0.6784     0.8239
A_1     C     0.3384     0.5169     0.3768
A_3     C     0.0246     0.9205     0.9371
A_0     C     0.3912     0.1545     0.5393
A_2     C     0.6617     0.0574     0.001
A_1     C     0.6982     0.9079     0.8882
A_0     C     0.4254     0.7448     0.8316
A_3     C     0.0999     0.0261     0.4461
A_3     C     0.2078     0.6547     0.3074
A_2     C     0.5869     0.458     0.1052
A_1     C     0.3449     0.2962     0.1293
A_3     C     0.9109     0.7781     0.7063
A_0     C     0.813     0.9718     0.0789
A_0     C     0.7778     0.3804     0.2714
A_3     C     0.1264     0.3618     0.3577
A_0     C     0.9377     0.7824     0.6604
A_2     C     0.3623     0.9898     0.5827
A_2     C     0.5812     0.293     0.1508
A_1     C     0.4155     0.3941     0.4517
A_2     C     0.8034     0.9788     0.4356
A_3     C     0.6558     0.8056     0.1813
A_1     C     0.0635     0.4825     0.0529
A_3     C     0.8275     0.6673     0.3573
A_2     C     0.6589     0.9231     0.6366
A_0     C     0.6194     0.3091     0.7943
A_2     C     0.0097     0.6173     0.1338
A_3     C     0.7512     0.9286     0.6705
A_0     C     0.3549     0.2148     0.2828
A_3     C     0.1311     0.4256     0.2344
A_1     C     0.1979     0.2657     0.1307
A_1     C     0.2805     0.3898     0.1285
A_3     C     0.9867     0.8638     0.5284
A_1     C     0.798     0.4109     0.7789
A_1     C     0.8134     0.816     0.2989
A_1     C     0.0618     0.1213     0.5658
A_2     C     0.3213     0.7392     0.6086
A_3     C     0.3184     0.7146     0.6664
A_2     C     0.3389     0.5252     0.5572
A_2     C     0.055     0.2733     0.8588
A_3     C     0.6756     0.1009     0.2583
A_3     C     0.3101     0.8409     0.9632
A_2     C     0.1267     0.4641     0.4392
A_1     C     0.2315     0.3841     0.313
A_1     C     0.5284     0.1045     0.0466
A_2     C     0.9082     0.2376     0.2225
A_1     C     0.381     0.3731     0.6081
A_2     C     0.8091     0.2964     0.6992
A_2     C     0.8784     0.3681     0.9971
A_2     C     0.6226     0.3823     0.1993
A_2     C     0.4168     0.5106     0.6695
A_3     C     0.5784     0.2955     0.8718
A_1     C     0.859     0.9169     0.0941
A_3     C     0.7119     0.762     0.8514
A_2     C     0.0758     0.0234     0.3117
A_0     C     0.5659     0.5031     0.1759
A_1     C     0.7376     0.7326     0.5796
A_2     C     0.678     0.3863     0.6811
A_3     C     0.5988     0.0995     0.5599
A_3     C     0.5015     0.2682     0.7967
A_3     C     0.9788     0.7391     0.9751
A_0     C     0.4589     0.2235     0.9425
A_0     C     0.3417     0.1371     0.1146
A_1     C     0.3154     0.6513     0.5741
A_1     C     0.738     0.1182     0.5585
A_1     C     0.5954     0.2182     0.2392
A_2     C     0.0041     0.5802     0.6579
A_3     C     0.314     0.5493     0.2405
A_3     C     0.9528     0.2694     0.8421
A_2     C     0.7296     0.0679     0.9778
A_3     C     0.7664     0.5689     0.2892
A_3     C     0.3862     0.2055     0.322
A_0     C     0.5399     0.3848     0.0323
A_1     C     0.9409     0.2044     0.9016
A_3     C     0.018     0.6902     0.2255
A_0     C     0.5598     0.0541     0.3376
A_0     C     0.3384     0.7421     0.7022
A_3     C     0.2269     0.3366     0.5322
A_3     C     0.4632     0.3775     0.3871
A_2     C     0.2009     0.06     0.2465
A_1     C     0.6915     0.5026     0.2072
A_2     C     0.1215     0.392     0.8258
A_1     C     0.2334     0.6922     0.7562
A_2     C     0.2884     0.4341     0.1725
A_0     C     0.8777     0.6367     0.5212
A_3     C     0.404     0.2789     0.2709
A_1     C     0.0803     0.6977     0.1768
A_0     C     0.3337     0.8302     0.9316
A_3     C     0.5979     0.2455     0.8477
A_1     C     0.465     0.0381     0.1634
A_3     C     0.1567     0.5505     0.414
A_0     C     0.2739     0.4504     0.6803
A_2     C     0.5111     0.6699     0.9186
A_1     C     0.8446     0.569     0.0289
A_3     C     0.1726     0.2798     0.4948
A_3     C     0.4646     0.7093     0.4329
A_2     C     0.9972     0.5341     0.0231
A_1     C     0.2825     0.8884     0.6019
A_0     C     0.9052     0.4116     0.4911
A_1     C     0.0935     0.9122     0.9931
A_2     C     0.4907     0.3875     0.0216
A_1     C     0.82     0.8418     0.7877
A_0     C     0.8057     0.4599     0.2658
A_0     C     0.0504     0.9096     0.5642
A_2     C     0.2822     0.7861     0.6421
A_2     C     0.0109     0.8602     0.3591
A_2     C     0.451     0.1952     0.189
A_2     C     0.0164     0.3345     0.1497
A_1     C     0.0633     0.0248     0.09
A_1     C     0.2756     0.1802     0.1133
A_1     C     0.6339     0.2989     0.3186
A_0     C     0.448     0.2796     0.7322
A_0     C     0.0958     0.2998     0.7322
A_2     C     0.2     0.8206     0.4613
A_2     C     0.9345     0.7499     0.6061
A_1     C     0.3059     0.8378     0.1074
A_3     C     0.1346     0.6994     0.7476
A_0     C     0.2721     0.904     0.2247
A_0     C     0.2095     0.1987     0.3312
A_3     C     0.26     0.1243     0.6052
A_0     C     0.254     0.5643     0.9567
A_1     C     0.6549     0.2313     0.3255
A_0     C     0.3663     0.2364     0.7088
A_3     C     0.7149     0.7087     0.8501
A_3     C     0.3991     0.7234     0.7944
A_0     C     0.1691     0.2715     0.027
A_1     C     0.1427     0.4279     0.3585
A_2     C     0.4     0.0073     0.979
A_1     C     0.5292     0.5678     0.2265
A_3     C     0.5975     0.7796     0.5845
A_1     C     0.455     0.1776     0.6852
A_2     C     0.7376     0.3519     0.9398
A_2     C     0.7609     0.1578     0.5456
A_3     C     0.2508     0.8565     0.5405
A_2     C     0.8445     0.6602     0.9939
A_3     C     0.0152     0.5182     0.4123
A_2     C     0.8763     0.6028     0.4651
A_2     C     0.7643     0.9755     0.087
A_1     C     0.0964     0.8979     0.5363
A_2     C     0.2733     0.56     0.3163
A_0     C     0.1886     0.5615     0.6041
A_3     C     0.0363     0.4843     0.3817
A_3     C     0.7285     0.3506     0.4967
A_1     C     0.952     0.8539     0.3933
A_2     C     0.5459     0.446     0.4911
A_0     C     0.8827     0.6599     0.9781
A_2     C     0.0261     0.8937     0.8251
A_0     C     0.8651     0.4548     0.9918
A_0     C     0.1372     0.1363     0.7233
A_3     C     0.6385     0.0524     0.6053
A_2     C     0.0212     0.3421     0.5197
A_2     C     0.5035     0.5597     0.1439
A_2     C     0.5012     0.8304     0.3915
A_3     C     0.1768     0.0787     0.8317
A_2     C     0.748     0.4734     0.2473
A_0     C     0.7983     0.6206     0.3252
A_1     C     0.2581     0.5545     0.5914
A_0     C     0.1559     0.7849     0.3989
A_3     C     0.2938     0.7917     0.4187
A_3     C     0.6748     0.001     0.7831
A_3     C     0.72     0.3424     0.885
A_2     C     0.1757     0.1896     0.1719
A_1     C     0.2133     0.1468     0.4189
A_0     C     0.2242     0.1885     0.8365
A_1     C     0.82     0.2292     0.7762
A_1     C     0.8182     0.4468     0.409
A_3     C     0.3823     0.2809     0.2614
A_1     C     0.0723     0.4844     0.639
A_2     C     0.1529     0.4748     0.4206
A_2     C     0.7454     0.7757     0.2763
A_2     C     0.7444     0.2604     0.0082
A_2     C     0.5674     0.7031     0.2121
A_2     C     0.7405     0.3538     0.5649
A_0     C     0.3986     0.7428     0.707
A_0     C     0.5041     0.0129     0.8074
A_3     C     0.6756     0.1143     0.4167
A_3     C     0.0963     0.0311     0.6967
A_2     C     0.5487     0.883     0.2392
A_1     C     0.2938     0.4644     0.2604
A_1     C     0.165     0.8366     0.1174
A_2     C     0.2881     0.6821     0.7276
A_0     C     0.228     0.858     0.361
A_2     C     0.9747     0.5411     0.8912
A_1     C     0.7165     0.3872     0.3681
A_3     C     0.5131     0.5689     0.5987
A_2     C     0.5351     0.1365     0.146
A_1     C     0.8184     0.1271     0.3472
A_1     C     0.5276     0.7385     0.2862
A_2     C     0.0087     0.9712     0.6541
A_3     C     0.3695     0.6979     0.5816
A_3     C     0.5324     0.4486     0.3854
A_0     C     0.2879     0.5955     0.0241
A_1     C     0.3624     0.3112     0.4899
A_2     C     0.262     0.7201     0.4317
A_3     C     0.0589     0.4971     0.7406
A_3     C     0.039     0.6321     0.9641
A_0     C     0.402     0.323     0.2283
A_3     C     0.3177     0.4855     0.3899
A_1     C     0.2206     0.5029     0.365
A_3     C     0.3108     0.9669     0.5383
A_1     C     0.3467     0.4586     0.5642
A_2     C     0.1438     0.8341     0.2314
A_0     C     0.518     0.8894     0.7629
A_0     C     0.3065     0.9226     0.3413
A_2     C     0.1741     0.7275     0.2172
A_0     C     0.3257     0.2567     0.4443
A_1     C     0.4078     0.2536     0.6186
A_1     C     0.1503     0.076     0.7428
A_0     C     0.7274     0.2157     0.4088
A_2     C     0.1262     0.9118     0.7445
A_1     C     0.7945     0.1143     0.3075
A_2     C     0.6469     0.2429     0.0069
A_2     C     0.4032     0.5898     0.9733
A_1     C     0.4173     0.0012     0.9765
A_1     C     0.7092     0.3804     0.9159
A_3     C     0.2261     0.731     0.8696
A_2     C     0.5904     0.6219     0.5356
A_2     C     0.7054     0.3431     0.683
A_2     C     0.467     0.1328     0.4623
A_0     C     0.7755     0.0902     0.823
A_1     C     0.3489     0.5322     0.1318
A_2     C     0.4169     0.9497     0.7207
A_0     C     0.9013     0.0122     0.9451
A_0     C     0.84     0.1469     0.374
A_2     C     0.3999     0.4683     0.6725
A_2     C     0.9     0.9458     0.3501
A_0     C     0.2935     0.3217     0.0342
A_1     C     0.5491     0.2788     0.623
A_0     C     0.277     0.1973     0.8472
A_1     C     0.2284     0.1134     0.2115
A_1     C     0.1801     0.6064     0.4411
A_0     C     0.5136     0.5189     0.3239
A_1     C     0.4894     0.2823     0.1914
A_1     C     0.9472     0.4515     0.6615
A_1     C     0.5659     0.393     0.7001
A_3     C     0.6993     0.9007     0.9248
A_2     C     0.1532     0.0474     0.0801
A_2     C     0.0686     0.1505     0.3704
A_1     C     0.3299     0.3265     0.9846
A_1     C     0.4207     0.3664     0.6522
A_2     C     0.9627     0.0169     0.6686
A_0     C     0.7254     0.0686     0.5009
A_1     C     0.0265     0.636     0.9223
A_2     C     0.8436     0.8285     0.1751
A_2     C     0.3956     0.0272     0.0835
A_2     C     0.442     0.434     0.1161
A_3     C     0.8229     0.7533     0.2505
A_3     C     0.7468     0.5745     0.8502
A_2     C     0.1549     0.9273     0.0467
A_1     C     0.3945     0.8724     0.2167
A_2     C     0.5917     0.1602     0.4903
A_1     C     0.5181     0.4092     0.7617
A_0     C     0.5151     0.5848     0.6607
A_2     C     0.7974     0.0691     0.0618
A_0     C     0.1909     0.9355     0.0424
A_0     C     0.0522     0.9967     0.6149
A_3     C     0.9765     0.0294     0.6337
A_2     C     0.1343     0.9183     0.07
A_0     C     0.6129     0.0988     0.7619
A_1     C     0.586     0.7627     0.8333
A_1     C     0.3823     0.263     0.9734
A_2     C     0.7114     0.6959     0.286
A_1     C     0.4858     0.828     0.9809
A_2     C     0.1608     0.6492     0.1189
A_2     C     0.6535     0.553     0.8764
A_0     C     0.267     0.4521     0.9667
A_0     C     0.115     0.2042     0.0181
A_1     C     0.1915     0.2371     0.6201
A_3     C     0.634     0.1766     0.006
A_0     C     0.0396     0.2784     0.5546
A_1     C     0.9122     0.374     0.2007
A_0     C     0.7304     0.0518     0.4947
A_3     C     0.6969     0.1524     0.6522
A_3     C     0.931     0.2512     0.539
A_0     C     0.9299     0.9071     0.1316
A_2     C     0.8545     0.4221     0.8956
A_3     C     0.245     0.2421     0.9674
A_3     C     0.4715     0.8857     0.4017
A_0     C     0.185     0.4527     0.3836
A_0     C     0.4536     0.2117     0.1413
A_0     C     0.8987     0.6759     0.5306
A_3     C     0.8376     0.0842     0.9685
A_2     C     0.616     0.6318     0.3285
A_3     C     0.2026     0.1636     0.8045
A_1     C     0.7456     0.7603     0.3521
A_1     C     0.1193     0.2711     0.371
A_3     C     0.8026     0.4003     0.8666
A_2     C     0.5161     0.9689     0.0846
A_0     C     0.7612     0.4823     0.0124
A_1     C     0.4864     0.0336     0.8343
A_0     C     0.5921     0.8906     0.0431
A_0     C     0.7283     0.6957     0.7443
A_2     C     0.02     0.8592     0.5807
A_3     C     0.9719     0.895     0.8337
A_0     C     0.4837     0.7864     0.6418
A_0     C     0.765     0.8992     0.1093
A_2     C     0.8157     0.5688     0.8975
A_1     C     0.7186     0.3369     0.3142
A_3     C     0.7568     0.2116     0.632
A_1     C     0.1314     0.6353     0.8765
A_0     C     0.2508     0.9848     0.1418
