MAT-82

loop_
_symmetry_equiv_pos_as_xyz
  x,y,z
_cell_length_a          45.7091
_cell_length_b          25.1332
_cell_length_c          23.19
_cell_angle_alpha       90.0000
_cell_angle_beta        90.0000
_cell_angle_gamma       90.0000
loop_
_atom_site_label
_atom_site_type_symbol
_atom_site_fract_x
_atom_site_fract_y
_atom_site_fract_z
A_3     C     0.7434     0.0988     0.5433
A_0     C     0.0533     0.7269     0.7803
A_1     C     0.5512     0.3622     0.2151
A_2     C     0.2516     0.3323     0.8701
A_1     C     0.3354     0.8918     0.4204
A_1     C     0.5542     0.7556     0.2922
A_0     C     0.1598     0.7555     0.7622
A_1     C     0.804     0.6181     0.4908
A_2     C     0.7459     0.4539     0.5845
A_3     C     0.8782     0.2094     0.7119
A_2     C     0.0773     0.4032     0.7701
A_0     C     0.5099     0.6064     0.6751
A_2     C     0.2791     0.5394     0.6574
A_0     C     0.4229     0.6123     0.0587
A_2     C     0.8483     0.7207     0.498
A_1     C     0.2304     0.5602     0.3421
A_0     C     0.9728     0.4442     0.9686
A_3     C     0.4218     0.9125     0.1101
A_3     C     0.3933     0.1861     0.3102
A_1     C     0.1824     0.9063     0.2775
A_3     C     0.4087     0.6211     0.6205
A_3     C     0.2195     0.0673     0.5383
A_2     C     0.7933     0.5228     0.977
A_2     C     0.5363     0.4011     0.4032
A_3     C     0.4746     0.7209     0.4307
A_3     C     0.7263     0.5476     0.8947
A_2     C     0.6471     0.9705     0.4272
A_1     C     0.9644     0.2759     0.0228
A_3     C     0.5611     0.0107     0.7676
A_3     C     0.2032     0.3186     0.4137
A_0     C     0.703     0.0163     0.1554
A_1     C     0.2909     0.046     0.1268
A_2     C     0.4074     0.7611     0.0327
A_0     C     0.4762     0.1079     0.8729
A_2     C     0.7547     0.697     0.2185
A_2     C     0.9642     0.9926     0.8131
A_0     C     0.7854     0.5729     0.1299
A_2     C     0.1357     0.4129     0.6676
A_1     C     0.5703     0.1678     0.4126
A_0     C     0.8683     0.9188     0.7683
A_0     C     0.9597     0.2543     0.8267
A_2     C     0.0465     0.9073     0.5184
A_3     C     0.7928     0.2994     0.4647
A_2     C     0.8135     0.7173     0.0935
A_0     C     0.3891     0.2423     0.7173
A_1     C     0.0821     0.3159     0.5657
A_0     C     0.3144     0.7143     0.4697
A_3     C     0.995     0.4886     0.0861
A_3     C     0.2431     0.9334     0.2626
A_1     C     0.5043     0.86     0.6631
A_2     C     0.7412     0.2122     0.0687
A_3     C     0.4315     0.4198     0.2262
A_1     C     0.9037     0.9032     0.0337
A_2     C     0.134     0.8544     0.586
A_1     C     0.1763     0.373     0.5518
A_0     C     0.2349     0.9278     0.102
A_0     C     0.4511     0.5785     0.6252
A_3     C     0.27     0.0866     0.6878
A_2     C     0.142     0.0506     0.698
A_2     C     0.8859     0.811     0.4907
A_0     C     0.6771     0.1355     0.4485
A_0     C     0.8186     0.5667     0.703
A_2     C     0.4354     0.4945     0.4229
A_2     C     0.342     0.4322     0.5171
A_2     C     0.0817     0.6505     0.5189
A_2     C     0.6265     0.8915     0.9232
A_1     C     0.2743     0.9391     0.1923
A_2     C     0.3998     0.8975     0.8318
A_2     C     0.8609     0.4334     0.8735
A_1     C     0.9855     0.8824     0.8275
A_1     C     0.0025     0.6148     0.5714
A_2     C     0.7238     0.8473     0.5378
A_3     C     0.7158     0.2994     0.527
A_2     C     0.4576     0.1203     0.9091
A_0     C     0.5387     0.8538     0.2284
A_2     C     0.5896     0.6547     0.4965
A_1     C     0.712     0.6798     0.3493
A_1     C     0.2537     0.262     0.1984
A_3     C     0.8658     0.3064     0.7676
A_2     C     0.7426     0.5715     0.2049
A_1     C     0.0775     0.8882     0.6235
A_2     C     0.5421     0.5798     0.6723
A_2     C     0.0996     0.4418     0.5691
A_2     C     0.1999     0.3775     0.0048
A_0     C     0.9841     0.3406     0.2916
A_2     C     0.9462     0.0558     0.8281
A_3     C     0.7561     0.0191     0.8862
A_0     C     0.7834     0.9773     0.3903
A_1     C     0.9098     0.7272     0.9853
A_2     C     0.6681     0.4522     0.0578
A_0     C     0.2473     0.6823     0.6983
A_0     C     0.5317     0.1611     0.0072
A_2     C     0.9683     0.5941     0.4852
A_0     C     0.54     0.6287     0.0706
A_1     C     0.6988     0.5568     0.0415
A_2     C     0.8162     0.2795     0.8321
A_0     C     0.7657     0.9595     0.8028
A_3     C     0.5515     0.1314     0.1253
A_3     C     0.757     0.427     0.6901
A_2     C     0.4321     0.3112     0.1519
A_0     C     0.809     0.8647     0.2199
A_1     C     0.3638     0.9374     0.3692
A_2     C     0.4768     0.8145     0.2302
A_2     C     0.9775     0.8101     0.7474
A_1     C     0.7587     0.4536     0.8158
A_1     C     0.0048     0.0876     0.1915
A_1     C     0.3957     0.6369     0.0998
A_2     C     0.8055     0.9957     0.163
A_2     C     0.3221     0.4772     0.2309
A_2     C     0.625     0.8307     0.9914
A_3     C     0.7042     0.9939     0.7147
A_3     C     0.1177     0.2516     0.5198
A_0     C     0.5303     0.8337     0.683
A_0     C     0.0518     0.5808     0.9049
A_2     C     0.4479     0.4254     0.975
A_2     C     0.0394     0.4152     0.1141
A_2     C     0.0625     0.8002     0.7964
A_1     C     0.8085     0.3065     0.6239
A_2     C     0.6544     0.4664     0.5128
A_1     C     0.7466     0.6391     0.9019
A_1     C     0.5845     0.4509     0.3805
A_0     C     0.1777     0.5704     0.5319
A_3     C     0.8028     0.8169     0.7282
A_2     C     0.8862     0.9068     0.9568
A_3     C     0.4074     0.1094     0.0025
A_3     C     0.8729     0.6063     0.6402
A_1     C     0.602     0.7553     0.0781
A_3     C     0.5671     0.766     0.2332
A_0     C     0.0168     0.1906     0.186
A_2     C     0.2659     0.6157     0.6306
A_1     C     0.8597     0.2294     0.9064
A_1     C     0.2262     0.1664     0.1626
A_0     C     0.1482     0.1323     0.7062
A_0     C     0.1547     0.2671     0.6798
A_0     C     0.9472     0.4652     0.1702
A_0     C     0.2297     0.9905     0.7261
A_2     C     0.0538     0.1108     0.8185
A_3     C     0.7107     0.3608     0.7336
A_0     C     0.8959     0.0913     0.5579
A_3     C     0.5873     0.8623     0.5185
A_0     C     0.894     0.0272     0.4282
A_3     C     0.9651     0.4486     0.424
A_2     C     0.7251     0.7839     0.6497
A_1     C     0.4671     0.1168     0.7884
A_2     C     0.9904     0.1027     0.5204
A_0     C     0.9757     0.6762     0.875
A_1     C     0.1036     0.3328     0.7879
A_3     C     0.9998     0.161     0.03
A_0     C     0.0892     0.5143     0.5982
A_1     C     0.3704     0.4971     0.455
A_3     C     0.91     0.8976     0.7748
A_0     C     0.6054     0.0567     0.7678
A_2     C     0.8959     0.9752     0.2867
A_3     C     0.097     0.032     0.4824
A_3     C     0.4361     0.1603     0.6429
A_2     C     0.4198     0.6178     0.7312
A_1     C     0.8533     0.2287     0.0679
A_1     C     0.5846     0.9982     0.3434
A_2     C     0.2144     0.3448     0.3601
A_2     C     0.895     0.7575     0.2191
A_3     C     0.5098     0.2319     0.9087
A_3     C     0.8034     0.0313     0.6255
A_2     C     0.0553     0.7197     0.8926
A_3     C     0.0198     0.8218     0.7783
A_1     C     0.9283     0.8388     0.4654
A_0     C     0.7419     0.3426     0.8802
A_0     C     0.8925     0.2666     0.0982
A_0     C     0.8674     0.0042     0.979
A_3     C     0.4261     0.1727     0.2966
A_3     C     0.9511     0.5121     0.8972
A_3     C     0.2362     0.0143     0.093
A_3     C     0.637     0.9906     0.6905
A_3     C     0.3606     0.0914     0.2973
A_3     C     0.6527     0.3558     0.505
A_3     C     0.7365     0.6899     0.5181
A_3     C     0.1174     0.608     0.8755
A_3     C     0.2013     0.8502     0.9086
A_3     C     0.5701     0.6927     0.0454
A_3     C     0.1193     0.873     0.8239
A_3     C     0.0434     0.5728     0.8315
A_3     C     0.4389     0.9266     0.3986
A_3     C     0.3806     0.1133     0.2733
A_3     C     0.7339     0.5051     0.1654
A_3     C     0.0391     0.3908     0.863
A_3     C     0.8455     0.3432     0.7691
A_3     C     0.1455     0.7277     0.5367
A_3     C     0.2344     0.8149     0.0631
A_3     C     0.0744     0.0835     0.9007
A_3     C     0.0946     0.5194     0.4787
A_3     C     0.4074     0.0253     0.9459
A_3     C     0.4045     0.8762     0.2511
A_3     C     0.5873     0.0183     0.1492
A_3     C     0.3027     0.3166     0.3446
A_3     C     0.2438     0.5575     0.584
A_3     C     0.3817     0.9819     0.9086
A_3     C     0.9612     0.0487     0.3278
A_3     C     0.6671     0.4822     0.5062
A_3     C     0.8927     0.9887     0.9874
A_3     C     0.0472     0.5574     0.5181
A_3     C     0.8204     0.6871     0.4512
A_3     C     0.3194     0.399     0.0533
A_3     C     0.2394     0.0464     0.4157
A_3     C     0.6886     0.3348     0.4263
A_3     C     0.6461     0.0268     0.4502
A_3     C     0.0938     0.7803     0.3454
A_3     C     0.2408     0.2717     0.1256
A_3     C     0.1581     0.7477     0.4032
A_3     C     0.1522     0.3938     0.0545
A_3     C     0.9841     0.1034     0.6402
A_3     C     0.8299     0.1664     0.0899
A_3     C     0.332     0.1386     0.565
A_3     C     0.9093     0.2044     0.2058
A_3     C     0.1719     0.1064     0.0805
A_3     C     0.7483     0.6645     0.5129
A_3     C     0.295     0.3118     0.1153
A_3     C     0.5595     0.0383     0.0128
A_3     C     0.6228     0.1044     0.7952
A_3     C     0.2226     0.0444     0.6022
A_3     C     0.4745     0.8257     0.7262
A_3     C     0.1757     0.3632     0.8444
A_3     C     0.4079     0.8365     0.4357
A_3     C     0.8693     0.6408     0.9811
A_3     C     0.1533     0.4873     0.3815
A_3     C     0.3776     0.4625     0.2125
A_3     C     0.0515     0.6188     0.756
A_3     C     0.7901     0.2478     0.8873
A_3     C     0.3817     0.7254     0.6867
A_3     C     0.7886     0.1991     0.8211
A_3     C     0.885     0.6433     0.2806
A_3     C     0.1027     0.1915     0.5596
A_3     C     0.0006     0.3581     0.7155
A_3     C     0.0756     0.6045     0.182
A_3     C     0.2399     0.8041     0.5814
A_3     C     0.6736     0.0384     0.6595
A_3     C     0.6627     0.6051     0.1139
A_3     C     0.2321     0.9649     0.9859
A_3     C     0.9339     0.2968     0.9968
A_3     C     0.1117     0.0503     0.0053
A_3     C     0.1998     0.7176     0.9775
A_3     C     0.0923     0.9971     0.8953
A_3     C     0.3138     0.9809     0.2446
A_3     C     0.7837     0.5944     0.8944
A_3     C     0.1636     0.1273     0.2301
A_3     C     0.8512     0.3893     0.1498
A_3     C     0.9339     0.3994     0.8435
A_3     C     0.6203     0.9589     0.2091
A_3     C     0.3972     0.3385     0.9227
A_3     C     0.4633     0.1908     0.1968
A_3     C     0.6171     0.5313     0.9412
A_3     C     0.1974     0.0842     0.4996
A_3     C     0.5789     0.2298     0.4915
A_3     C     0.1334     0.256     0.0364
A_3     C     0.6829     0.4512     0.6974
A_3     C     0.567     0.4663     0.9152
A_3     C     0.4655     0.3235     0.0017
A_3     C     0.4291     0.067     0.5803
A_3     C     0.7865     0.2229     0.9045
A_3     C     0.285     0.7164     0.9243
A_3     C     0.8938     0.1918     0.0637
A_3     C     0.2983     0.3458     0.3743
A_3     C     0.3182     0.3429     0.5924
A_3     C     0.6086     0.0523     0.4098
A_3     C     0.9831     0.821     0.037
A_3     C     0.6162     0.662     0.5441
A_3     C     0.9642     0.492     0.9408
A_3     C     0.1521     0.7084     0.4587
A_3     C     0.7614     0.2674     0.2062
A_3     C     0.9849     0.0035     0.266
A_3     C     0.2456     0.9953     0.0226
A_3     C     0.9788     0.7983     0.4221
A_3     C     0.8785     0.4143     0.3966
A_3     C     0.1827     0.5769     0.8929
A_3     C     0.5888     0.1485     0.2963
A_3     C     0.1231     0.3312     0.152
A_3     C     0.0919     0.1127     0.8618
A_3     C     0.5979     0.9334     0.7664
A_3     C     0.5119     0.4122     0.7367
A_3     C     0.1302     0.5885     0.4993
A_3     C     0.4972     0.9017     0.236
A_3     C     0.1392     0.288     0.5487
A_3     C     0.7622     0.6704     0.4541
A_3     C     0.3049     0.9758     0.6805
A_3     C     0.7238     0.2851     0.3121
A_3     C     0.5815     0.1843     0.9069
A_3     C     0.4767     0.9181     0.188
A_3     C     0.0382     0.7215     0.8501
A_3     C     0.5962     0.0218     0.6888
A_3     C     0.7728     0.4944     0.8101
A_3     C     0.4451     0.0134     0.1408
A_3     C     0.8075     0.974     0.5788
A_3     C     0.4838     0.9741     0.5718
A_3     C     0.8833     0.1519     0.9553
A_3     C     0.3464     0.0445     0.7217
A_3     C     0.3675     0.3603     0.3414
A_3     C     0.8544     0.2473     0.891
A_3     C     0.9897     0.9089     0.7752
A_3     C     0.9411     0.4586     0.1404
A_3     C     0.3118     0.3222     0.3994
A_3     C     0.7151     0.1868     0.4
A_3     C     0.1259     0.3717     0.0511
A_3     C     0.3233     0.6172     0.4376
A_3     C     0.2397     0.7007     0.219
A_3     C     0.0024     0.8164     0.1191
A_3     C     0.3206     0.0831     0.8852
A_3     C     0.339     0.4057     0.166
A_3     C     0.1325     0.9641     0.1894
A_3     C     0.5898     0.3206     0.9986
A_3     C     0.8281     0.9263     0.8319
A_3     C     0.6365     0.629     0.0676
A_3     C     0.1915     0.6785     0.233
A_3     C     0.9207     0.9474     0.2069
A_3     C     0.0278     0.8272     0.5142
A_3     C     0.0562     0.6567     0.2304
A_3     C     0.8674     0.5624     0.8346
A_3     C     0.0862     0.7299     0.9838
A_3     C     0.6089     0.9727     0.8036
A_3     C     0.4647     0.3995     0.5727
A_3     C     0.2202     0.9447     0.3741
A_3     C     0.1184     0.1244     0.0078
A_3     C     0.9526     0.1715     0.464
A_3     C     0.6015     0.9108     0.8086
A_3     C     0.7197     0.3127     0.5397
A_3     C     0.5695     0.9416     0.938
A_3     C     0.4656     0.9484     0.0861
A_3     C     0.12     0.5145     0.5386
A_3     C     0.2843     0.7884     0.1527
A_3     C     0.3898     0.2847     0.3031
A_3     C     0.692     0.3504     0.5275
A_3     C     0.5046     0.6747     0.3839
A_3     C     0.9923     0.9612     0.1093
A_3     C     0.4435     0.7372     0.6975
A_3     C     0.7044     0.8274     0.0651
A_3     C     0.9932     0.7884     0.2022
A_3     C     0.9975     0.715     0.4315
A_3     C     0.3274     0.8834     0.6536
A_3     C     0.4128     0.3572     0.335
A_3     C     0.0783     0.0088     0.8559
A_3     C     0.1968     0.0151     0.0504
A_3     C     0.1503     0.2771     0.3395
A_3     C     0.6927     0.8962     0.148
A_3     C     0.346     0.0015     0.8402
A_3     C     0.6205     0.8346     0.3505
A_3     C     0.4712     0.4714     0.8587
A_3     C     0.4214     0.8717     0.9802
A_3     C     0.3807     0.9218     0.5048
A_3     C     0.5639     0.8088     0.7576
A_3     C     0.4352     0.7529     0.7718
A_3     C     0.4038     0.7974     0.1808
A_3     C     0.8831     0.9632     0.526
A_3     C     0.5428     0.3229     0.9748
A_3     C     0.8098     0.7321     0.878
A_3     C     0.7478     0.7424     0.5206
