MAT-70

loop_
_symmetry_equiv_pos_as_xyz
  x,y,z
_cell_length_a          27.6204
_cell_length_b          41.9208
_cell_length_c          37.1204
_cell_angle_alpha       90.0000
_cell_angle_beta        90.0000
_cell_angle_gamma       90.0000
loop_
_atom_site_label
_atom_site_type_symbol
_atom_site_fract_x
_atom_site_fract_y
_atom_site_fract_z
A_1     C     0.6418     0.378     0.8276
A_3     C     0.301     0.7056     0.9617
A_1     C     0.4133     0.0865     0.7641
A_2     C     0.5635     0.7562     0.5184
A_1     C     0.1147     0.6327     0.7433
A_2     C     0.7603     0.0651     0.2978
A_0     C     0.7953     0.8932     0.2444
A_0     C     0.3433     0.1935     0.2301
A_0     C     0.8861     0.7104     0.4378
A_3     C     0.883     0.117     0.4017
A_1     C     0.1957     0.8816     0.8627
A_2     C     0.7557     0.8987     0.744
A_1     C     0.2708     0.1951     0.1692
A_1     C     0.7882     0.6376     0.13
A_1     C     0.846     0.7095     0.2693
A_3     C     0.8644     0.7571     0.0706
A_1     C     0.8848     0.8468     0.5261
A_0     C     0.417     0.5849     0.505
A_2     C     0.8231     0.722     0.8166
A_1     C     0.2843     0.6165     0.4542
A_2     C     0.2496     0.088     0.3855
A_3     C     0.1422     0.316     0.6279
A_1     C     0.669     0.9836     0.709
A_3     C     0.4298     0.7662     0.358
A_2     C     0.5668     0.5764     0.1118
A_2     C     0.2151     0.7717     0.1329
A_2     C     0.5768     0.7596     0.4635
A_0     C     0.6271     0.4812     0.4008
A_0     C     0.9853     0.8749     0.5099
A_2     C     0.6257     0.0586     0.7527
A_1     C     0.1784     0.1013     0.369
A_0     C     0.3738     0.2094     0.5408
A_3     C     0.9169     0.9283     0.8118
A_1     C     0.4089     0.1866     0.3432
A_3     C     0.7359     0.2367     0.1749
A_1     C     0.6557     0.6037     0.3857
A_2     C     0.2728     0.9252     0.4759
A_3     C     0.2561     0.4469     0.6981
A_1     C     0.0178     0.0523     0.2366
A_0     C     0.0737     0.9588     0.9317
A_0     C     0.219     0.9355     0.7944
A_1     C     0.8514     0.8438     0.9437
A_1     C     0.1853     0.2005     0.8518
A_0     C     0.2858     0.8252     0.4175
A_0     C     0.9668     0.2383     0.1041
A_2     C     0.8253     0.8221     0.8205
A_3     C     0.8846     0.3415     0.4021
A_3     C     0.3407     0.1827     0.1412
A_2     C     0.9243     0.1843     0.8501
A_1     C     0.7767     0.7351     0.969
A_3     C     0.3856     0.1293     0.0001
A_1     C     0.7248     0.0109     0.958
A_2     C     0.8347     0.7872     0.1815
A_1     C     0.8635     0.1265     0.2586
A_0     C     0.9005     0.6706     0.6661
A_1     C     0.8198     0.8219     0.0046
A_3     C     0.5849     0.153     0.1208
A_0     C     0.6182     0.4699     0.3824
A_0     C     0.4447     0.8789     0.3259
A_3     C     0.6745     0.1487     0.3472
A_0     C     0.3872     0.6484     0.3566
A_2     C     0.7065     0.5421     0.7522
A_3     C     0.4763     0.3798     0.8797
A_1     C     0.7033     0.4985     0.6297
A_3     C     0.5035     0.0322     0.0531
A_3     C     0.2356     0.4953     0.8977
A_2     C     0.1501     0.7831     0.8562
A_0     C     0.7175     0.6362     0.6748
A_3     C     0.9384     0.6718     0.2634
A_1     C     0.5261     0.2469     0.8634
A_0     C     0.8475     0.519     0.4311
A_2     C     0.5405     0.6464     0.4252
A_2     C     0.8359     0.8661     0.2254
A_1     C     0.6446     0.2279     0.8234
A_3     C     0.5758     0.9978     0.7531
A_0     C     0.9556     0.5445     0.9201
A_2     C     0.7978     0.4244     0.1941
A_2     C     0.0546     0.0134     0.907
A_3     C     0.078     0.7317     0.3359
A_3     C     0.1491     0.5838     0.4834
A_3     C     0.4124     0.4386     0.9716
A_0     C     0.9307     0.5353     0.0092
A_0     C     0.4037     0.7338     0.4827
A_3     C     0.4203     0.8871     0.5594
A_1     C     0.3157     0.9019     0.0611
A_0     C     0.3493     0.0419     0.9056
A_1     C     0.2179     0.819     0.7682
A_1     C     0.9488     0.9287     0.5669
A_2     C     0.9579     0.3134     0.7325
A_1     C     0.1718     0.2525     0.799
A_2     C     0.1356     0.3695     0.1536
A_1     C     0.1048     0.8221     0.8841
A_2     C     0.9508     0.5048     0.6551
A_3     C     0.7698     0.9039     0.7574
A_3     C     0.9448     0.1459     0.493
A_3     C     0.5695     0.6163     0.9322
A_2     C     0.5438     0.1017     0.8709
A_2     C     0.4751     0.5365     0.0999
A_3     C     0.0139     0.7882     0.8888
A_3     C     0.9957     0.9039     0.781
A_2     C     0.716     0.3872     0.7715
A_2     C     0.3415     0.8902     0.4398
A_1     C     0.3515     0.6489     0.3716
A_2     C     0.6666     0.729     0.856
A_1     C     0.4564     0.6509     0.7391
A_0     C     0.0052     0.6727     0.6388
A_3     C     0.6977     0.0517     0.6179
A_3     C     0.0464     0.4896     0.4956
A_0     C     0.7477     0.7257     0.1768
A_2     C     0.4618     0.6768     0.5978
A_3     C     0.7776     0.5662     0.4068
A_3     C     0.3182     0.9016     0.3853
A_3     C     0.9557     0.6373     0.9725
A_1     C     0.3897     0.3754     0.0533
A_1     C     0.3833     0.0398     0.0476
A_3     C     0.0727     0.2505     0.1548
A_0     C     0.7149     0.1991     0.1942
A_3     C     0.5096     0.4681     0.9069
A_1     C     0.4652     0.181     0.3015
A_3     C     0.7783     0.9694     0.6866
A_1     C     0.3588     0.5133     0.4492
A_2     C     0.1286     0.7706     0.0756
A_3     C     0.9858     0.3105     0.081
A_3     C     0.7033     0.5834     0.4272
A_2     C     0.2427     0.9378     0.181
A_0     C     0.0427     0.8341     0.6221
A_3     C     0.1743     0.0519     0.0036
A_1     C     0.9981     0.3109     0.9589
A_3     C     0.437     0.8803     0.0611
A_1     C     0.0792     0.7726     0.0726
A_2     C     0.5125     0.9933     0.2592
A_2     C     0.5103     0.1294     0.4746
A_2     C     0.2819     0.714     0.7645
A_0     C     0.5647     0.0678     0.3359
A_3     C     0.717     0.5114     0.7842
A_2     C     0.086     0.9816     0.0757
A_1     C     0.8988     0.6501     0.0996
A_1     C     0.458     0.4527     0.653
A_0     C     0.8222     0.91     0.8452
A_1     C     0.8666     0.6855     0.0909
A_3     C     0.3037     0.7128     0.0411
A_1     C     0.431     0.1023     0.9296
A_0     C     0.7472     0.3469     0.3331
A_1     C     0.9525     0.0317     0.4642
A_3     C     0.067     0.9692     0.4049
A_3     C     0.3941     0.667     0.3064
A_3     C     0.7571     0.6989     0.3443
A_3     C     0.6024     0.4275     0.4244
A_1     C     0.7078     0.306     0.4909
A_2     C     0.7487     0.3457     0.1626
A_1     C     0.6104     0.1421     0.3822
A_3     C     0.8273     0.0433     0.8462
A_0     C     0.2543     0.3428     0.066
A_1     C     0.4422     0.4688     0.6161
A_3     C     0.0953     0.4213     0.7557
A_3     C     0.9394     0.895     0.2965
A_2     C     0.9131     0.0791     0.1746
A_0     C     0.7253     0.2729     0.1608
A_1     C     0.8436     0.5116     0.8057
A_0     C     0.633     0.176     0.7069
A_3     C     0.5749     0.5457     0.0403
A_0     C     0.4515     0.2422     0.9907
A_0     C     0.0764     0.2787     0.2589
A_3     C     0.8733     0.3217     0.0274
A_3     C     0.5231     0.2149     0.1319
A_2     C     0.4952     0.2433     0.6554
A_2     C     0.545     0.7048     0.7959
A_1     C     0.8649     0.1685     0.9492
A_1     C     0.8732     0.9393     0.338
A_0     C     0.768     0.7403     0.8915
A_0     C     0.5708     0.4537     0.329
A_2     C     0.0244     0.0615     0.5659
A_2     C     0.2367     0.1336     0.6189
A_3     C     0.8605     0.3051     0.8673
A_2     C     0.3721     0.4096     0.7292
A_0     C     0.8808     0.9225     0.2224
A_1     C     0.1523     0.1495     0.5861
A_0     C     0.6271     0.4452     0.684
A_1     C     0.9715     0.6437     0.3871
A_0     C     0.797     0.6852     0.6484
A_1     C     0.0635     0.2928     0.9153
A_2     C     0.0952     0.1478     0.1592
A_3     C     0.4081     0.1677     0.2881
A_1     C     0.6063     0.9486     0.9082
A_2     C     0.2127     0.652     0.8783
A_2     C     0.5808     0.123     0.3009
A_0     C     0.6246     0.3941     0.3934
A_2     C     0.3683     0.9673     0.6123
A_0     C     0.5622     0.381     0.511
A_0     C     0.334     0.9285     0.0789
A_3     C     0.5891     0.9435     0.741
A_0     C     0.8721     0.4161     0.4125
A_3     C     0.2609     0.87     0.0541
A_2     C     0.3982     0.619     0.6698
A_2     C     0.5244     0.2028     0.1289
A_3     C     0.4026     0.2689     0.6821
A_2     C     0.5736     0.9526     0.7617
A_3     C     0.9623     0.45     0.2545
A_0     C     0.6875     0.8627     0.1466
A_3     C     0.0183     0.8742     0.6054
A_2     C     0.7837     0.7645     0.7991
A_0     C     0.0464     0.1189     0.8596
A_0     C     0.8353     0.1172     0.5936
A_2     C     0.6917     0.3308     0.9853
A_1     C     0.1294     0.498     0.1077
A_3     C     0.0121     0.2159     0.1319
A_1     C     0.3982     0.8459     0.5828
A_1     C     0.7449     0.7878     0.9755
A_3     C     0.2674     0.4884     0.9095
A_2     C     0.28     0.7781     0.3313
A_0     C     0.1168     0.6428     0.4839
A_3     C     0.5546     0.0071     0.7658
A_2     C     0.4071     0.2453     0.9597
A_0     C     0.062     0.0959     0.8538
A_2     C     0.0402     0.1797     0.7231
A_3     C     0.2232     0.5703     0.8421
A_0     C     0.3473     0.5049     0.1175
A_1     C     0.047     0.1765     0.7786
A_3     C     0.3989     0.261     0.9948
A_3     C     0.4272     0.2476     0.4289
A_2     C     0.6619     0.1623     0.0444
A_3     C     0.7007     0.4095     0.5784
A_3     C     0.1951     0.1246     0.7877
A_3     C     0.4985     0.2167     0.945
A_3     C     0.309     0.7291     0.5716
A_3     C     0.3189     0.1033     0.4929
A_1     C     0.2699     0.5205     0.276
A_1     C     0.6814     0.0049     0.7672
A_3     C     0.4857     0.1353     0.9635
A_1     C     0.4628     0.3132     0.0444
A_1     C     0.1816     0.376     0.8599
A_3     C     0.8453     0.7203     0.4806
A_0     C     0.3834     0.1425     0.2553
A_3     C     0.8509     0.0066     0.7334
A_3     C     0.5576     0.5874     0.3719
A_3     C     0.1383     0.6996     0.5425
A_2     C     0.1119     0.2168     0.001
A_0     C     0.8804     0.046     0.139
A_0     C     0.1365     0.0965     0.9853
A_3     C     0.0102     0.487     0.2009
A_3     C     0.5344     0.0336     0.7439
A_2     C     0.6577     0.8493     0.104
A_3     C     0.0967     0.821     0.2032
A_0     C     0.7831     0.8316     0.3563
A_1     C     0.4611     0.2431     0.3975
A_0     C     0.7357     0.7464     0.5276
A_1     C     0.0425     0.4248     0.1191
A_0     C     0.1389     0.7371     0.5583
A_3     C     0.946     0.8912     0.5555
A_3     C     0.651     0.1604     0.0134
A_1     C     0.8865     0.0299     0.1247
A_0     C     0.8248     0.4738     0.4696
A_3     C     0.321     0.6939     0.8809
A_1     C     0.8343     0.1268     0.4282
A_1     C     0.3451     0.8773     0.9125
A_1     C     0.7642     0.0319     0.1696
A_3     C     0.1822     0.0943     0.5638
A_0     C     0.3165     0.8809     0.0492
A_3     C     0.7609     0.4678     0.455
A_2     C     0.306     0.6862     0.323
A_2     C     0.2227     0.1636     0.2857
A_3     C     0.7318     0.701     0.9706
A_0     C     0.74     0.742     0.5154
A_2     C     0.7443     0.6292     0.1811
A_1     C     0.1572     0.8749     0.2354
A_0     C     0.4009     0.3491     0.0465
A_2     C     0.9366     0.3837     0.0696
A_3     C     0.2872     0.1105     0.9238
A_3     C     0.671     0.2469     0.9498
A_0     C     0.2817     0.9338     0.738
A_2     C     0.0188     0.3996     0.2128
A_3     C     0.7711     0.9716     0.1023
A_3     C     0.7978     0.2112     0.0011
A_3     C     0.7906     0.7848     0.4534
A_3     C     0.537     0.5711     0.4436
A_3     C     0.3191     0.9907     0.3209
A_3     C     0.3775     0.4128     0.6064
A_3     C     0.0557     0.6182     0.5223
A_3     C     0.8353     0.8772     0.2115
A_3     C     0.8277     0.1018     0.1866
A_3     C     0.1284     0.6179     0.4922
A_3     C     0.7206     0.3996     0.2669
A_3     C     0.8099     0.2608     0.8419
A_3     C     0.3457     0.4417     0.4362
A_3     C     0.1594     0.1703     0.0404
A_3     C     0.688     0.4353     0.4514
A_3     C     0.9441     0.1662     0.764
A_3     C     0.3388     0.2434     0.0404
A_3     C     0.9822     0.8739     0.6974
A_3     C     0.7247     0.7454     0.6198
A_3     C     0.8194     0.5584     0.7628
A_3     C     0.9428     0.5126     0.8339
A_3     C     0.3937     0.715     0.3081
A_3     C     0.5505     0.4404     0.1913
A_3     C     0.5512     0.2282     0.929
A_3     C     0.7235     0.1835     0.5702
A_3     C     0.4991     0.0993     0.4495
A_3     C     0.7437     0.4666     0.7251
A_3     C     0.2285     0.1948     0.0154
A_3     C     0.5061     0.3572     0.4123
A_3     C     0.8919     0.0224     0.8654
A_3     C     0.713     0.7119     0.499
A_3     C     0.1245     0.5176     0.923
A_3     C     0.538     0.4317     0.3075
A_3     C     0.7152     0.9056     0.2685
A_3     C     0.7959     0.2847     0.6814
A_3     C     0.3531     0.6849     0.3257
A_3     C     0.9629     0.0765     0.847
A_3     C     0.3755     0.8892     0.781
A_3     C     0.1745     0.342     0.528
A_3     C     0.8582     0.9398     0.7395
A_3     C     0.4109     0.9936     0.3727
A_3     C     0.5031     0.576     0.6643
A_3     C     0.6527     0.0996     0.5229
A_3     C     0.8525     0.2842     0.3698
A_3     C     0.4135     0.9674     0.1501
A_3     C     0.769     0.5737     0.9182
A_3     C     0.6239     0.6531     0.2166
A_3     C     0.4856     0.8538     0.7338
A_3     C     0.488     0.786     0.6032
A_3     C     0.7205     0.9142     0.1928
A_3     C     0.5556     0.9672     0.7114
A_3     C     0.4662     0.9675     0.9276
A_3     C     0.4701     0.9916     0.2652
A_3     C     0.4021     0.3181     0.7918
A_3     C     0.2657     0.3809     0.017
A_3     C     0.7879     0.0112     0.0745
A_3     C     0.6116     0.2515     0.5245
A_3     C     0.4434     0.1857     0.5152
A_3     C     0.9204     0.7666     0.7011
A_3     C     0.8972     0.7088     0.5718
A_3     C     0.4868     0.2839     0.1804
A_3     C     0.1666     0.9524     0.7597
A_3     C     0.7766     0.4856     0.8769
A_3     C     0.5047     0.9669     0.4996
A_3     C     0.8903     0.4213     0.581
A_3     C     0.8142     0.7774     0.4435
A_3     C     0.894     0.3143     0.6134
A_3     C     0.7609     0.5703     0.707
A_3     C     0.8314     0.1242     0.3802
A_3     C     0.1184     0.4522     0.9753
A_3     C     0.5115     0.752     0.758
A_3     C     0.7162     0.0913     0.9976
A_3     C     0.5705     0.4154     0.8916
A_3     C     0.8788     0.2984     0.4
A_3     C     0.6249     0.6192     0.1529
A_3     C     0.6969     0.7212     0.4187
A_3     C     0.7161     0.7356     0.2544
A_3     C     0.2343     0.6461     0.6531
A_3     C     0.8692     0.5177     0.6844
A_3     C     0.943     0.4734     0.4922
A_3     C     0.7796     0.7072     0.4662
A_3     C     0.5844     0.6001     0.1212
A_3     C     0.9763     0.796     0.6926
A_3     C     0.412     0.1084     0.705
A_3     C     0.4564     0.5568     0.6721
A_3     C     0.4918     0.0572     0.1275
A_3     C     0.2001     0.7353     0.6253
A_3     C     0.3591     0.1573     0.2509
A_3     C     0.7581     0.0323     0.1539
A_3     C     0.2185     0.6046     0.1333
A_3     C     0.2988     0.8943     0.2082
A_3     C     0.4401     0.6325     0.5769
A_3     C     0.9141     0.6016     0.1766
A_3     C     0.9943     0.2741     0.7292
A_3     C     0.8523     0.7698     0.2609
A_3     C     0.9163     0.9925     0.901
A_3     C     0.6682     0.837     0.6268
A_3     C     0.6083     0.4876     0.2296
A_3     C     0.3602     0.9526     0.3768
A_3     C     0.9945     0.0048     0.3481
A_3     C     0.9222     0.0165     0.2455
A_3     C     0.9784     0.314     0.7684
A_3     C     0.6327     0.1268     0.784
A_3     C     0.226     0.9879     0.7936
A_3     C     0.1801     0.4171     0.3467
A_3     C     0.2416     0.1992     0.0661
A_3     C     0.8088     0.328     0.2065
A_3     C     0.5133     0.2875     0.9818
