MAT-92

loop_
_symmetry_equiv_pos_as_xyz
  x,y,z
_cell_length_a          29.912
_cell_length_b          43.2436
_cell_length_c          36.2969
_cell_angle_alpha       90.0000
_cell_angle_beta        90.0000
_cell_angle_gamma       90.0000
loop_
_atom_site_label
_atom_site_type_symbol
_atom_site_fract_x
_atom_site_fract_y
_atom_site_fract_z
A_1     C     0.5531     0.3324     0.761
A_3     C     0.2992     0.5506     0.9361
A_1     C     0.4056     0.0459     0.5995
A_2     C     0.5335     0.7729     0.6774
A_1     C     0.9829     0.6514     0.599
A_2     C     0.7677     0.1571     0.25
A_0     C     0.7605     0.8455     0.2338
A_0     C     0.363     0.1678     0.2723
A_0     C     0.8856     0.7053     0.44
A_3     C     0.8761     0.1217     0.3288
A_1     C     0.0947     0.9973     0.8532
A_2     C     0.8663     0.9873     0.8737
A_1     C     0.201     0.2632     0.1826
A_1     C     0.6805     0.7269     0.1021
A_1     C     0.7264     0.7012     0.2461
A_3     C     0.8383     0.7734     0.1047
A_1     C     0.8926     0.6916     0.6365
A_0     C     0.4803     0.5424     0.6072
A_2     C     0.7501     0.8164     0.6773
A_1     C     0.2602     0.4839     0.3729
A_2     C     0.234     0.0019     0.4565
A_3     C     0.2625     0.3195     0.4576
A_1     C     0.7792     0.0588     0.7157
A_3     C     0.395     0.7505     0.3765
A_2     C     0.5412     0.5835     0.2501
A_2     C     0.2549     0.7336     0.107
A_2     C     0.5688     0.8593     0.4603
A_0     C     0.6327     0.5668     0.2865
A_0     C     0.0576     0.8089     0.6719
A_2     C     0.5287     0.9551     0.7663
A_1     C     0.2467     0.0922     0.3126
A_0     C     0.4223     0.1094     0.5636
A_3     C     0.7375     0.7642     0.829
A_1     C     0.3947     0.2378     0.2483
A_3     C     0.7904     0.1396     0.2039
A_1     C     0.7138     0.5818     0.4691
A_2     C     0.3844     0.0431     0.5617
A_3     C     0.2082     0.2937     0.8708
A_1     C     0.8513     0.0846     0.1157
A_0     C     0.2075     0.8366     0.7578
A_0     C     0.3481     0.9049     0.794
A_1     C     0.751     0.8132     0.0636
A_1     C     0.2497     0.1455     0.8541
A_0     C     0.2682     0.7545     0.5239
A_0     C     0.9643     0.1592     0.9942
A_2     C     0.8036     0.6486     0.6651
A_3     C     0.0     0.1832     0.4735
A_3     C     0.192     0.2292     0.0884
A_2     C     0.9099     0.122     0.8576
A_1     C     0.7341     0.6586     0.8447
A_3     C     0.284     0.0749     0.9286
A_1     C     0.8307     0.8415     0.9755
A_2     C     0.0127     0.7876     0.0593
A_1     C     0.8629     0.1326     0.318
A_0     C     0.0068     0.8359     0.6167
A_1     C     0.9563     0.6886     0.0564
A_3     C     0.5395     0.1478     0.2445
A_0     C     0.481     0.4387     0.543
A_0     C     0.4407     0.7287     0.1775
A_3     C     0.6312     0.1098     0.3568
A_0     C     0.2854     0.6731     0.1674
A_2     C     0.5958     0.4957     0.8171
A_3     C     0.3325     0.352     0.7949
A_1     C     0.7628     0.5631     0.7552
A_3     C     0.5843     0.0326     0.1011
A_3     C     0.1528     0.4597     0.7126
A_2     C     0.1349     0.7849     0.8155
A_0     C     0.6973     0.629     0.6707
A_3     C     0.9262     0.6208     0.3334
A_1     C     0.5737     0.1327     0.9307
A_0     C     0.9631     0.5757     0.5482
A_2     C     0.6863     0.643     0.3913
A_2     C     0.6781     0.8746     0.2558
A_1     C     0.6245     0.4205     0.7064
A_3     C     0.4721     0.9704     0.6562
A_0     C     0.9883     0.4442     0.8434
A_2     C     0.7806     0.4208     0.0943
A_2     C     0.0845     0.8886     0.985
A_3     C     0.0502     0.6736     0.4252
A_3     C     0.0936     0.5546     0.4195
A_3     C     0.4329     0.4451     0.9248
A_0     C     0.8342     0.5124     0.862
A_0     C     0.4923     0.7934     0.4524
A_3     C     0.3465     0.9521     0.684
A_1     C     0.3953     0.9029     0.0307
A_0     C     0.4171     0.9183     0.8461
A_1     C     0.1198     0.8035     0.7738
A_1     C     0.8317     0.9898     0.6325
A_2     C     0.881     0.2381     0.7153
A_1     C     0.1293     0.1658     0.7558
A_2     C     0.1352     0.2473     0.0819
A_1     C     0.0197     0.8032     0.7666
A_2     C     0.0534     0.3915     0.623
A_3     C     0.793     0.0406     0.6798
A_3     C     0.0469     0.2739     0.5665
A_3     C     0.6285     0.7009     0.9106
A_2     C     0.4078     0.1927     0.011
A_2     C     0.4785     0.5982     0.1064
A_3     C     0.0664     0.8254     0.9797
A_3     C     0.0075     0.9263     0.8774
A_2     C     0.6994     0.5274     0.8601
A_2     C     0.3737     0.8623     0.411
A_1     C     0.3557     0.5348     0.335
A_2     C     0.6074     0.8379     0.9015
A_1     C     0.4797     0.6396     0.8084
A_0     C     0.0707     0.5739     0.5938
A_3     C     0.69     0.9928     0.6732
A_3     C     0.0953     0.6264     0.597
A_0     C     0.6451     0.7851     0.2949
A_2     C     0.518     0.8603     0.6665
A_3     C     0.7664     0.4574     0.3415
A_3     C     0.2547     0.8479     0.2954
A_3     C     0.9453     0.6787     0.9022
A_1     C     0.3113     0.3996     0.0526
A_1     C     0.5224     0.8793     0.0471
A_3     C     0.0152     0.2928     0.1844
A_0     C     0.6936     0.2457     0.3086
A_3     C     0.6289     0.3549     0.8943
A_1     C     0.44     0.2036     0.3001
A_3     C     0.7871     0.9868     0.5226
A_1     C     0.3037     0.4017     0.4563
A_2     C     0.0756     0.8503     0.186
A_3     C     0.9159     0.3201     0.0314
A_3     C     0.7999     0.5634     0.2749
A_2     C     0.1699     0.9787     0.3143
A_0     C     0.1509     0.9594     0.5306
A_3     C     0.1786     0.0634     0.059
A_1     C     0.9767     0.3053     0.9438
A_3     C     0.5028     0.8493     0.0401
A_1     C     0.0501     0.637     0.0058
A_2     C     0.454     0.0076     0.2713
A_2     C     0.4753     0.2276     0.4155
A_2     C     0.3839     0.6833     0.7289
A_0     C     0.3921     0.9173     0.2179
A_3     C     0.5922     0.4525     0.6669
A_2     C     0.0998     0.1401     0.1008
A_1     C     0.82     0.6239     0.1218
A_1     C     0.4693     0.5664     0.7683
A_0     C     0.8068     0.9716     0.8104
A_1     C     0.7214     0.7816     0.9532
A_3     C     0.2691     0.854     0.0818
A_1     C     0.4662     0.1392     0.9452
A_0     C     0.7721     0.3487     0.4734
A_1     C     0.8262     0.0295     0.5408
A_3     C     0.0872     0.9945     0.2959
A_3     C     0.3055     0.6826     0.3508
A_3     C     0.7472     0.5508     0.1711
A_3     C     0.5211     0.4553     0.3667
A_1     C     0.7794     0.1203     0.3422
A_2     C     0.7188     0.437     0.0382
A_1     C     0.4336     0.1988     0.3891
A_3     C     0.7965     0.9758     0.713
A_0     C     0.1684     0.3706     0.03
A_1     C     0.4263     0.4617     0.7827
A_3     C     0.0887     0.3978     0.6721
A_3     C     0.8316     0.8791     0.2455
A_2     C     0.8891     0.077     0.1589
A_0     C     0.7065     0.2843     0.1836
A_1     C     0.9122     0.6633     0.9034
A_0     C     0.7614     0.1511     0.7597
A_3     C     0.5557     0.5516     0.9718
A_0     C     0.5664     0.3239     0.1396
A_0     C     0.1177     0.2557     0.1528
A_3     C     0.8481     0.2739     0.1287
A_3     C     0.526     0.1802     0.1355
A_2     C     0.532     0.202     0.6301
A_2     C     0.6534     0.8857     0.7903
A_1     C     0.9667     0.2749     0.1062
A_1     C     0.8856     0.9485     0.2867
A_0     C     0.6142     0.7742     0.7794
A_0     C     0.5155     0.4726     0.3012
A_2     C     0.025     0.2099     0.4284
A_2     C     0.0808     0.2609     0.7412
A_3     C     0.7537     0.2965     0.9545
A_2     C     0.4215     0.3072     0.6774
A_0     C     0.9106     0.0966     0.39
A_1     C     0.1187     0.1018     0.4492
A_0     C     0.6765     0.5026     0.8191
A_1     C     0.0913     0.6556     0.3299
A_0     C     0.7335     0.7341     0.5337
A_1     C     0.1811     0.3686     0.9207
A_2     C     0.0931     0.2098     0.1817
A_3     C     0.4066     0.2613     0.3471
A_1     C     0.4738     0.0875     0.9405
A_2     C     0.2632     0.5774     0.0361
A_2     C     0.6253     0.0894     0.2095
A_0     C     0.6003     0.3494     0.3302
A_2     C     0.3684     0.9434     0.6234
A_0     C     0.6206     0.3454     0.5484
A_0     C     0.1897     0.8754     0.9703
A_3     C     0.6658     0.9438     0.637
A_0     C     0.8861     0.3402     0.3446
A_3     C     0.313     0.7996     0.0817
A_2     C     0.3772     0.613     0.5442
A_2     C     0.445     0.1384     0.1137
A_3     C     0.3429     0.3245     0.8048
A_2     C     0.4281     0.1001     0.6729
A_3     C     0.9971     0.4708     0.2649
A_0     C     0.6025     0.8201     0.2573
A_3     C     0.0034     0.9805     0.6117
A_2     C     0.7806     0.6403     0.7763
A_0     C     0.9986     0.2294     0.0298
A_0     C     0.8984     0.0765     0.6767
A_2     C     0.5324     0.2701     0.0475
A_1     C     0.0804     0.4742     0.0229
A_3     C     0.9766     0.2418     0.1362
A_1     C     0.4487     0.897     0.6458
A_1     C     0.7172     0.7396     0.056
A_3     C     0.2495     0.4721     0.8761
A_2     C     0.1228     0.8049     0.3959
A_0     C     0.153     0.8103     0.4674
A_3     C     0.5602     0.0525     0.7121
A_2     C     0.4631     0.1078     0.8663
A_0     C     0.2125     0.0864     0.8631
A_2     C     0.9104     0.1104     0.7757
A_3     C     0.0799     0.497     0.7604
A_0     C     0.3297     0.4857     0.1909
A_1     C     0.9377     0.2009     0.7834
A_3     C     0.5115     0.248     0.0451
A_3     C     0.4502     0.1554     0.4783
A_2     C     0.7176     0.1718     0.0759
A_3     C     0.6806     0.3459     0.6745
A_3     C     0.1431     0.2381     0.7773
A_3     C     0.6238     0.1936     0.9034
A_3     C     0.1906     0.7516     0.6451
A_3     C     0.4045     0.0602     0.6433
A_1     C     0.2332     0.5247     0.3815
A_1     C     0.6115     0.9422     0.7997
A_3     C     0.4453     0.0341     0.8177
A_1     C     0.5077     0.3296     0.152
A_1     C     0.1998     0.3287     0.9669
A_3     C     0.7433     0.6182     0.4536
A_0     C     0.4848     0.2269     0.3019
A_3     C     0.8523     0.951     0.7681
A_3     C     0.5262     0.7074     0.4625
A_3     C     0.2387     0.7421     0.4225
A_2     C     0.1096     0.154     0.0199
A_0     C     0.7599     0.9871     0.0872
A_0     C     0.1263     0.1652     0.8443
A_3     C     0.8851     0.3907     0.2646
A_3     C     0.4882     0.0181     0.6832
A_2     C     0.6712     0.8621     0.9699
A_3     C     0.191     0.8081     0.2254
A_0     C     0.7959     0.8063     0.3414
A_1     C     0.4448     0.2852     0.4046
A_0     C     0.6574     0.6192     0.466
A_1     C     0.177     0.4572     0.136
A_0     C     0.0543     0.8012     0.6381
A_3     C     0.0814     0.9443     0.4128
A_3     C     0.5778     0.2464     0.0884
A_1     C     0.9585     0.914     0.195
A_0     C     0.7181     0.3463     0.3596
A_3     C     0.3725     0.6027     0.8549
A_1     C     0.9354     0.988     0.4201
A_1     C     0.2876     0.9807     0.9198
A_1     C     0.8232     0.1353     0.1186
A_3     C     0.2007     0.9914     0.5296
A_0     C     0.1992     0.8138     0.1331
A_3     C     0.7518     0.3503     0.3588
A_2     C     0.2861     0.683     0.3209
A_2     C     0.2582     0.2888     0.3301
A_3     C     0.6092     0.6727     0.893
A_0     C     0.7097     0.7511     0.3931
A_2     C     0.6637     0.6386     0.2259
A_1     C     0.1828     0.781     0.3244
A_0     C     0.3057     0.2552     0.2095
A_2     C     0.0236     0.3069     0.0547
A_3     C     0.2788     0.2906     0.962
A_3     C     0.7313     0.0623     0.0905
A_0     C     0.283     0.9708     0.7939
A_2     C     0.088     0.412     0.286
A_3     C     0.8647     0.9141     0.1422
A_3     C     0.1008     0.9535     0.5859
A_3     C     0.0567     0.6324     0.8159
A_3     C     0.6006     0.2579     0.0984
A_3     C     0.5453     0.441     0.6339
A_3     C     0.8964     0.7405     0.81
A_3     C     0.0562     0.1596     0.9858
A_3     C     0.7719     0.5696     0.4604
A_3     C     0.731     0.7804     0.8775
A_3     C     0.0757     0.7745     0.4017
A_3     C     0.0936     0.5029     0.2336
A_3     C     0.9969     0.3783     0.4764
A_3     C     0.5965     0.5298     0.8901
A_3     C     0.0602     0.1989     0.6375
A_3     C     0.5806     0.6961     0.7613
A_3     C     0.1166     0.5684     0.8621
A_3     C     0.2478     0.8362     0.3343
A_3     C     0.6413     0.7722     0.6375
A_3     C     0.0979     0.8639     0.6551
A_3     C     0.8465     0.22     0.1166
A_3     C     0.4793     0.5876     0.9513
A_3     C     0.6365     0.9155     0.9886
A_3     C     0.7366     0.8888     0.8735
A_3     C     0.1524     0.2228     0.1275
A_3     C     0.9001     0.0766     0.021
A_3     C     0.9655     0.7874     0.4744
A_3     C     0.0768     0.0814     0.2941
A_3     C     0.3433     0.4234     0.8324
A_3     C     0.0439     0.187     0.9586
A_3     C     0.4184     0.6961     0.3967
A_3     C     0.2635     0.9815     0.5629
A_3     C     0.126     0.2549     0.2437
A_3     C     0.813     0.1603     0.4125
A_3     C     0.2374     0.5717     0.6088
A_3     C     0.5382     0.4302     0.9594
A_3     C     0.2341     0.988     0.8973
A_3     C     0.8452     0.1144     0.0003
A_3     C     0.7222     0.4453     0.2759
A_3     C     0.6326     0.7967     0.0175
A_3     C     0.9448     0.4193     0.6057
A_3     C     0.5022     0.1846     0.0506
A_3     C     0.0506     0.8074     0.7414
A_3     C     0.2965     0.398     0.2216
A_3     C     0.5384     0.6461     0.5561
A_3     C     0.2529     0.8068     0.7919
A_3     C     0.5828     0.7889     0.3409
A_3     C     0.5703     0.8016     0.0011
A_3     C     0.4573     0.6057     0.0485
A_3     C     0.2577     0.516     0.8647
A_3     C     0.9758     0.0094     0.5721
A_3     C     0.8461     0.0207     0.6358
A_3     C     0.3515     0.6039     0.2395
A_3     C     0.0659     0.9442     0.506
A_3     C     0.0424     0.1228     0.0201
A_3     C     0.2397     0.4585     0.2675
A_3     C     0.5824     0.974     0.7529
A_3     C     0.3315     0.1325     0.5747
A_3     C     0.7517     0.3397     0.6169
A_3     C     0.322     0.0521     0.2923
A_3     C     0.6327     0.4333     0.4244
A_3     C     0.2459     0.4283     0.4322
A_3     C     0.8982     0.8726     0.6899
A_3     C     0.5641     0.1285     0.7283
A_3     C     0.278     0.2612     0.2616
A_3     C     0.9984     0.6143     0.2138
A_3     C     0.3237     0.9152     0.0458
A_3     C     0.6798     0.8266     0.7582
A_3     C     0.2946     0.6028     0.1678
A_3     C     0.6058     0.5446     0.2375
A_3     C     0.6108     0.2006     0.3086
A_3     C     0.282     0.4179     0.0334
A_3     C     0.4717     0.1365     0.1208
A_3     C     0.2195     0.3165     0.3385
A_3     C     0.7706     0.5737     0.0919
A_3     C     0.056     0.5749     0.1652
A_3     C     0.5617     0.3092     0.2645
A_3     C     0.5047     0.963     0.0072
A_3     C     0.1276     0.2671     0.7126
A_3     C     0.1316     0.5051     0.9876
A_3     C     0.3881     0.9485     0.5742
A_3     C     0.88     0.8271     0.5532
A_3     C     0.3711     0.5655     0.4065
A_3     C     0.9155     0.2917     0.864
A_3     C     0.0665     0.9691     0.7695
A_3     C     0.8211     0.4885     0.5535
A_3     C     0.3506     0.3535     0.6205
A_3     C     0.5127     0.3234     0.3795
A_3     C     0.9076     0.9719     0.4141
A_3     C     0.3559     0.7699     0.7755
A_3     C     0.1158     0.4042     0.6759
A_3     C     0.0621     0.2676     0.1904
A_3     C     0.3454     0.8199     0.6508
A_3     C     0.5593     0.6201     0.9908
A_3     C     0.2906     0.3102     0.9343
A_3     C     0.295     0.6274     0.7851
A_3     C     0.6826     0.3849     0.929
A_3     C     0.1097     0.7851     0.8293
A_3     C     0.5944     0.1312     0.6828
A_3     C     0.1382     0.1657     0.9251
A_3     C     0.6952     0.4683     0.0947
A_3     C     0.189     0.8309     0.3983
A_3     C     0.1679     0.5559     0.091
A_3     C     0.5033     0.2404     0.146
A_3     C     0.2671     0.0509     0.821
A_3     C     0.8295     0.8194     0.6217
A_3     C     0.314     0.6209     0.4428
A_3     C     0.9269     0.1017     0.0821
A_3     C     0.2778     0.3046     0.1895
A_3     C     0.4378     0.9088     0.3349
A_3     C     0.6991     0.8894     0.1655
A_3     C     0.5783     0.181     0.9007
A_3     C     0.2725     0.6941     0.9495
A_3     C     0.3698     0.618     0.4565
A_3     C     0.9765     0.0262     0.595
A_3     C     0.3489     0.867     0.997
A_3     C     0.5144     0.989     0.0947
A_3     C     0.6664     0.0287     0.6734
A_3     C     0.2427     0.3939     0.1391
A_3     C     0.3288     0.9512     0.8042
A_3     C     0.7663     0.8619     0.9421
A_3     C     0.6914     0.1792     0.8981
A_3     C     0.0648     0.7871     0.9425
A_3     C     0.1306     0.1331     0.7047
A_3     C     0.0196     0.1614     0.5533
A_3     C     0.4389     0.721     0.2209
A_3     C     0.682     0.7864     0.3392
A_3     C     0.6375     0.8124     0.7605
A_3     C     0.1508     0.2348     0.8325
A_3     C     0.1226     0.6284     0.7855
A_3     C     0.5764     0.4804     0.9839
A_3     C     0.2538     0.0039     0.0439
A_3     C     0.1288     0.9322     0.6823
A_3     C     0.3446     0.7866     0.9224
A_3     C     0.5037     0.8194     0.3587
A_3     C     0.7609     0.0001     0.7989
A_3     C     0.9921     0.5429     0.0457
A_3     C     0.8776     0.7606     0.6675
A_3     C     0.2548     0.9587     0.2349
A_3     C     0.3663     0.1235     0.344
A_3     C     0.3256     0.2835     0.0401
A_3     C     0.7267     0.4818     0.3826
A_3     C     0.8161     0.9992     0.7201
A_3     C     0.5973     0.8882     0.0964
A_3     C     0.5496     0.8491     0.6015
A_3     C     0.1179     0.0957     0.0576
A_3     C     0.8822     0.6951     0.7511
A_3     C     0.2782     0.9721     0.3904
A_3     C     0.2167     0.5057     0.8612
A_3     C     0.1209     0.2349     0.3522
A_3     C     0.7209     0.3831     0.9087
A_3     C     0.2043     0.756     0.8338
A_3     C     0.289     0.3198     0.9759
A_3     C     0.7058     0.448     0.5168
A_3     C     0.893     0.721     0.0268
A_3     C     0.6283     0.8052     0.4764
A_3     C     0.1003     0.2489     0.5376
A_3     C     0.4176     0.0709     0.0937
A_3     C     0.8109     0.2874     0.6189
A_3     C     0.2212     0.3635     0.383
A_3     C     0.698     0.5061     0.2023
A_3     C     0.1019     0.0224     0.9032
A_3     C     0.5633     0.1563     0.0666
A_3     C     0.1602     0.1585     0.8793
A_3     C     0.942     0.6794     0.51
A_3     C     0.173     0.525     0.2156
A_3     C     0.6267     0.977     0.4368
A_3     C     0.5363     0.8683     0.0446
A_3     C     0.3196     0.3963     0.0559
A_3     C     0.7569     0.3566     0.6498
A_3     C     0.5066     0.4994     0.7658
A_3     C     0.1158     0.9315     0.8079
A_3     C     0.3208     0.5724     0.3237
A_3     C     0.8401     0.054     0.7902
A_3     C     0.1693     0.8517     0.6618
A_3     C     0.9658     0.7145     0.7597
A_3     C     0.1314     0.8562     0.3665
A_3     C     0.6064     0.2634     0.5267
A_3     C     0.754     0.29     0.4654
A_3     C     0.1713     0.3453     0.7233
A_3     C     0.1129     0.6939     0.4501
A_3     C     0.692     0.245     0.8243
A_3     C     0.2637     0.3798     0.5343
A_3     C     0.5458     0.0499     0.1974
A_3     C     0.7459     0.7371     0.8806
A_3     C     0.1154     0.2611     0.6383
A_3     C     0.2054     0.0453     0.7093
A_3     C     0.6221     0.3232     0.8733
A_3     C     0.541     0.7067     0.1974
A_3     C     0.0586     0.4371     0.2273
A_3     C     0.1014     0.2378     0.8077
A_3     C     0.3402     0.0301     0.6842
A_3     C     0.5576     0.8722     0.6252
A_3     C     0.2229     0.1614     0.081
A_3     C     0.4054     0.7573     0.6808
A_3     C     0.4429     0.4803     0.1488
A_3     C     0.2848     0.3258     0.2238
A_3     C     0.8567     0.6783     0.1781
A_3     C     0.6735     0.6312     0.0324
A_3     C     0.2233     0.7308     0.2736
A_3     C     0.7663     0.5477     0.5518
A_3     C     0.691     0.065     0.8449
A_3     C     0.7083     0.3432     0.8781
A_3     C     0.8378     0.7063     0.5327
A_3     C     0.0922     0.2928     0.5597
A_3     C     0.3828     0.1164     0.3968
A_3     C     0.7606     0.7191     0.8609
A_3     C     0.9385     0.6541     0.2068
A_3     C     0.2094     0.6559     0.995
A_3     C     0.775     0.4311     0.7153
A_3     C     0.1794     0.5984     0.3736
A_3     C     0.1225     0.7615     0.5685
A_3     C     0.6372     0.5587     0.717
A_3     C     0.9293     0.0743     0.8625
A_3     C     0.9955     0.1694     0.5933
A_3     C     0.41     0.9432     0.1723
A_3     C     0.6468     0.3345     0.6632
A_3     C     0.9662     0.2591     0.2838
A_3     C     0.9877     0.2005     0.0945
A_3     C     0.9465     0.8716     0.1563
A_3     C     0.5319     0.75     0.9202
A_3     C     0.6606     0.7585     0.0683
A_3     C     0.8829     0.0137     0.7483
A_3     C     0.7644     0.5183     0.6575
A_3     C     0.0001     0.0638     0.4496
A_3     C     0.4879     0.9032     0.6217
A_3     C     0.9957     0.5384     0.1518
A_3     C     0.4808     0.9801     0.9624
A_3     C     0.0075     0.0721     0.2405
A_3     C     0.7044     0.9313     0.6778
A_3     C     0.3051     0.7015     0.4566
A_3     C     0.5166     0.5675     0.2529
