MAT-47

loop_
_symmetry_equiv_pos_as_xyz
  x,y,z
_cell_length_a          45.6844
_cell_length_b          13.2315
_cell_length_c          24.9603
_cell_angle_alpha       90.0000
_cell_angle_beta        90.0000
_cell_angle_gamma       90.0000
loop_
_atom_site_label
_atom_site_type_symbol
_atom_site_fract_x
_atom_site_fract_y
_atom_site_fract_z
A_2     C     0.9729     0.452     0.0528
A_0     C     0.7216     0.7276     0.1575
A_0     C     0.1646     0.9654     0.523
A_3     C     0.6698     0.5701     0.3301
A_1     C     0.2213     0.5574     0.1791
A_2     C     0.0975     0.6096     0.4506
A_2     C     0.2704     0.6067     0.0914
A_1     C     0.2094     0.3231     0.3504
A_1     C     0.2929     0.696     0.096
A_3     C     0.2022     0.6062     0.1481
A_2     C     0.7944     0.5541     0.0665
A_2     C     0.1108     0.1032     0.0074
A_0     C     0.8771     0.7997     0.0161
A_1     C     0.4278     0.1001     0.3755
A_0     C     0.6489     0.3752     0.2703
A_3     C     0.7438     0.4433     0.3751
A_2     C     0.5123     0.6207     0.3495
A_3     C     0.4461     0.9749     0.0981
A_0     C     0.3269     0.2483     0.1528
A_0     C     0.6806     0.4198     0.7551
A_0     C     0.6473     0.8661     0.9731
A_2     C     0.1026     0.1483     0.2759
A_1     C     0.0488     0.2498     0.0548
A_1     C     0.8448     0.4758     0.129
A_3     C     0.3503     0.2632     0.864
A_1     C     0.5568     0.5168     0.0788
A_3     C     0.5731     0.295     0.2346
A_2     C     0.7526     0.2003     0.7195
A_2     C     0.6335     0.7738     0.0115
A_1     C     0.0253     0.0898     0.9971
A_2     C     0.87     0.6887     0.8452
A_3     C     0.1426     0.7674     0.7065
A_3     C     0.397     0.4485     0.717
A_3     C     0.4463     0.456     0.8944
A_0     C     0.9268     0.0392     0.0966
A_3     C     0.048     1.0     0.3348
A_1     C     0.0162     0.6614     0.8922
A_0     C     0.1429     0.4349     0.7628
A_3     C     0.1149     0.4321     0.3313
A_3     C     0.4835     0.5148     0.7033
A_0     C     0.2216     0.0601     0.3099
A_0     C     0.4033     0.6637     0.3935
A_2     C     0.4565     0.8196     0.9315
A_2     C     0.5434     0.6027     0.4454
A_3     C     0.8695     0.8418     0.7951
A_1     C     0.1267     0.3053     0.5464
A_3     C     0.0278     0.1364     0.9838
A_1     C     0.947     0.5394     0.5224
A_2     C     0.1474     0.4882     0.1727
A_1     C     0.5241     0.9999     0.1464
A_0     C     0.7574     0.4813     0.7989
A_3     C     0.941     0.7973     0.3708
A_0     C     0.9629     0.3981     0.1149
A_3     C     0.1134     0.4786     0.4042
A_0     C     0.4192     0.6715     0.7513
A_2     C     0.8965     0.0177     0.1512
A_1     C     0.0476     0.3733     0.3035
A_0     C     0.8964     0.4463     0.3481
A_3     C     0.7549     0.0983     0.8781
A_2     C     0.7017     0.5661     0.5141
A_2     C     0.4329     0.2868     0.007
A_3     C     0.624     0.5333     0.1579
A_2     C     0.8062     0.023     0.2976
A_1     C     0.3889     0.5659     0.1995
A_3     C     0.9173     0.9053     0.2455
A_3     C     0.4119     0.7417     0.2526
A_0     C     0.8027     0.5247     0.0076
A_2     C     0.508     0.8585     0.6817
A_1     C     0.3551     0.1537     0.3372
A_1     C     0.3557     0.9815     0.6742
A_0     C     0.4115     0.5326     0.7825
A_3     C     0.5939     0.948     0.5311
A_2     C     0.0906     0.4792     0.5096
A_3     C     0.0176     0.0384     0.3569
A_1     C     0.8364     0.2005     0.8097
A_2     C     0.336     0.3245     0.767
A_3     C     0.6515     0.6649     0.5888
A_1     C     0.5753     0.7065     0.9083
A_2     C     0.1291     0.8374     0.3459
A_0     C     0.8254     0.8758     0.0912
A_1     C     0.9395     0.1705     0.1836
A_0     C     0.0345     0.0471     0.8026
A_2     C     0.0754     0.5415     0.9804
A_0     C     0.2331     0.4971     0.7068
A_1     C     0.1581     0.825     0.6318
A_3     C     0.2897     0.2315     0.7746
A_0     C     0.2579     0.2494     0.5658
A_1     C     0.6227     0.04     0.6521
A_3     C     0.7861     0.8042     0.2232
A_1     C     0.252     0.7273     0.2301
A_1     C     0.0428     0.6191     0.971
A_2     C     0.0136     0.9967     0.82
A_0     C     0.1807     0.0683     0.7442
A_2     C     0.3737     0.1089     0.5215
A_0     C     0.5263     0.1051     0.1797
A_1     C     0.8314     0.2497     0.5704
A_1     C     0.6136     0.8521     0.8117
A_0     C     0.4292     0.627     0.6122
A_1     C     0.8836     0.4621     0.0929
A_1     C     0.729     0.3879     0.1342
A_3     C     0.9128     0.5342     0.9923
A_0     C     0.644     0.0543     0.8981
A_3     C     0.1737     0.5805     0.0829
A_2     C     0.9096     0.9598     0.2648
A_1     C     0.8645     0.685     0.0424
A_3     C     0.2713     0.3995     0.642
A_1     C     0.5642     0.5373     0.9273
A_1     C     0.1395     0.7257     0.2359
A_1     C     0.3503     0.9977     0.0119
A_3     C     0.8459     0.4394     0.5312
A_0     C     0.412     0.394     0.1515
A_1     C     0.0649     0.6409     0.0754
A_3     C     0.122     0.1036     0.4675
A_3     C     0.0044     0.2331     0.6938
A_1     C     0.6139     0.4375     0.658
A_2     C     0.0607     0.8187     0.8089
A_3     C     0.7181     0.5133     0.6827
A_1     C     0.1553     0.9079     0.4127
A_2     C     0.5239     0.4318     0.5549
A_1     C     0.2053     0.1374     0.7761
A_1     C     0.1837     0.4795     0.7278
A_2     C     0.9152     0.1893     0.1711
A_1     C     0.8336     0.2102     0.1484
A_3     C     0.8015     0.9667     0.7528
A_0     C     0.2571     0.1613     0.7012
A_0     C     0.1436     0.7103     0.0038
A_3     C     0.4699     0.156     0.1708
A_2     C     0.8651     0.9425     0.1654
A_1     C     0.9893     0.5285     0.8146
A_3     C     0.4325     0.7944     0.8431
A_2     C     0.3151     0.2026     0.6319
A_2     C     0.6736     0.0689     0.5365
A_2     C     0.3498     0.2223     0.4332
A_2     C     0.7907     0.0259     0.3836
A_3     C     0.1577     0.2228     0.7688
A_1     C     0.134     0.4553     0.602
A_3     C     0.6637     0.7925     0.4361
A_3     C     0.1534     0.8422     0.3883
A_3     C     0.5507     0.8437     0.8161
A_1     C     0.1189     0.1555     0.3567
A_0     C     0.3364     0.0275     0.2
A_3     C     0.785     0.844     0.1196
A_3     C     0.3339     0.4118     0.8456
A_0     C     0.9621     0.4887     0.4109
A_3     C     0.4559     0.5888     0.0856
A_1     C     0.0772     0.8461     0.021
A_2     C     0.8578     0.4446     0.5471
A_1     C     0.0312     0.8806     0.1944
A_2     C     0.3324     0.4595     0.1913
A_1     C     0.6784     0.1026     0.7939
A_1     C     0.9159     0.5756     0.6103
A_3     C     0.9281     0.8352     0.1539
A_3     C     0.8943     0.2394     0.309
A_1     C     0.4688     0.0659     0.8707
A_0     C     0.3702     0.4351     0.967
A_3     C     0.1501     0.0368     0.0697
A_2     C     0.7516     0.1925     0.6868
A_0     C     0.6226     0.0802     0.8119
A_2     C     0.4961     0.1433     0.2002
A_1     C     0.5854     0.1462     0.1555
A_1     C     0.9198     0.5995     0.2091
A_3     C     0.2025     0.2544     0.2892
A_1     C     0.7656     0.291     0.315
A_0     C     0.3967     0.4041     0.8592
A_3     C     0.5785     0.5742     0.5055
A_0     C     0.8829     0.3305     0.9652
A_2     C     0.2448     0.3038     0.7313
A_0     C     0.3308     0.3572     0.8676
A_0     C     0.3189     0.6857     0.3507
A_2     C     0.8482     0.8039     0.9394
A_0     C     0.9709     0.7909     0.5549
A_1     C     0.1517     0.7211     0.2609
A_2     C     0.8515     0.603     0.167
A_0     C     0.6343     0.9801     0.4975
A_2     C     0.2209     0.1833     0.6034
A_3     C     0.8834     0.9276     0.4646
A_3     C     0.2618     0.481     0.3941
A_1     C     0.074     0.0469     0.7472
A_0     C     0.5625     0.6955     0.0377
A_0     C     0.4591     0.4518     0.2969
A_3     C     0.0839     0.5338     0.5045
A_0     C     0.632     0.3158     0.2479
A_2     C     0.2329     0.1937     0.5416
A_1     C     0.1198     0.7622     0.3265
A_1     C     0.9125     0.8781     0.3123
A_1     C     0.9811     0.8372     0.426
A_2     C     0.1515     0.1701     0.3585
A_2     C     0.0699     0.9321     0.2319
A_2     C     0.2867     0.4595     0.9828
A_3     C     0.1035     0.1252     0.9489
A_3     C     0.3898     0.2715     0.0224
A_0     C     0.4489     0.9358     0.839
A_3     C     0.116     0.6738     0.4228
A_2     C     0.3984     0.6878     0.2447
A_3     C     0.9753     0.133     0.5026
A_3     C     0.2981     0.8243     0.0043
A_1     C     0.1545     0.8645     0.7991
A_1     C     0.7431     0.6052     0.5112
A_3     C     0.3947     0.3354     0.3287
A_1     C     0.1137     0.4666     0.1342
A_1     C     0.7657     0.3868     0.5001
A_0     C     0.1714     0.6239     0.3872
A_1     C     0.1661     0.733     0.0945
A_2     C     0.1747     0.0655     0.8212
A_2     C     0.9965     0.9473     0.5197
A_2     C     0.259     0.2522     0.8194
A_2     C     0.3623     0.2009     0.5641
A_1     C     0.2773     0.9883     0.2434
A_1     C     0.9561     0.702     0.1997
A_0     C     0.333     0.2845     0.0922
A_3     C     0.1401     0.2471     0.9201
A_2     C     0.3842     0.3705     0.8337
A_1     C     0.8413     0.5154     0.784
A_0     C     0.9061     0.6814     0.7376
A_2     C     0.8412     0.9368     0.4715
A_0     C     0.4611     0.3622     0.4297
A_2     C     0.1183     0.9795     0.9719
A_2     C     0.7754     0.0633     0.9753
A_3     C     0.0003     0.8582     0.4843
A_3     C     0.7455     0.6194     0.9778
A_0     C     0.8231     0.0094     0.6246
A_0     C     0.2068     0.266     0.113
A_1     C     0.8804     0.5557     0.282
A_0     C     0.2078     0.8988     0.4142
A_2     C     0.7588     0.853     0.7125
A_2     C     0.716     0.2618     0.2571
A_3     C     0.034     0.5622     0.8865
A_3     C     0.4894     0.2726     0.2897
A_0     C     0.5314     0.391     0.9347
A_1     C     0.2349     0.6694     0.1385
A_3     C     0.3586     0.5299     0.3441
A_3     C     0.3292     0.9373     0.8611
A_3     C     0.5211     0.1664     0.8989
A_0     C     0.3525     0.0724     0.2225
A_3     C     0.0217     0.8577     0.9022
A_3     C     0.3984     0.0898     0.6459
A_3     C     0.3395     0.3821     0.4423
A_2     C     0.3437     0.5851     0.1397
A_2     C     0.8723     0.4877     0.5082
A_1     C     0.7743     0.4671     0.3781
A_0     C     0.4945     0.2148     0.9682
A_1     C     0.5782     0.3223     0.9374
A_0     C     0.9175     0.6369     0.6944
A_3     C     0.659     0.1654     0.2711
A_0     C     0.8563     0.7525     0.8466
A_2     C     0.1329     0.6037     0.3309
A_2     C     0.8565     0.7365     0.5177
A_0     C     0.3268     0.8421     0.4157
A_1     C     0.9405     0.5341     0.3603
A_3     C     0.2121     0.0795     0.0124
A_0     C     0.5066     0.3139     0.0084
A_3     C     0.757     0.6178     0.7195
A_1     C     0.3131     0.9055     0.4551
A_3     C     0.7954     0.9268     0.695
A_1     C     0.5572     0.9715     0.7539
A_0     C     0.2585     0.4157     0.1413
A_3     C     0.0093     0.7917     0.4707
A_2     C     0.911     0.8418     0.6283
A_1     C     0.9581     0.9216     0.9261
A_2     C     0.2242     0.2792     0.5732
A_0     C     0.5024     0.3191     0.0405
A_2     C     0.4281     0.2531     0.1414
A_2     C     0.6877     0.017     0.8015
A_1     C     0.3795     0.3493     0.4008
A_1     C     0.256     0.3705     0.9515
A_1     C     0.4724     0.801     0.3233
A_1     C     0.5559     0.909     0.8299
A_3     C     0.8118     0.1554     0.4802
A_0     C     0.148     0.7692     0.7931
A_0     C     0.8427     0.4591     0.9576
A_2     C     0.9945     0.6005     0.8144
A_3     C     0.3064     0.1811     0.1982
A_0     C     0.7973     0.3081     0.677
A_1     C     0.5571     0.1536     0.2265
A_0     C     0.4352     0.5161     0.3888
A_3     C     0.514     0.6048     0.1524
A_3     C     0.1933     0.0183     0.4647
A_3     C     0.3474     0.9455     0.5315
A_2     C     0.4002     0.3967     0.812
A_2     C     0.4338     0.8727     0.1378
A_2     C     0.831     0.9625     0.9513
A_2     C     0.1536     0.0254     0.2401
A_1     C     0.7041     0.6501     0.9265
A_3     C     0.0641     0.379     0.7301
A_1     C     0.9044     0.9921     0.1646
A_1     C     0.7405     0.473     0.0737
A_2     C     0.3178     0.7529     0.6298
A_2     C     0.705     0.915     0.3614
A_0     C     0.7029     0.987     0.5558
A_3     C     0.734     0.5438     0.8764
A_2     C     0.37     0.7158     0.1076
A_3     C     0.7964     0.9444     0.4385
A_0     C     0.7822     0.7303     0.6588
A_2     C     0.3631     0.3575     0.6258
A_2     C     0.7069     0.12     0.1535
A_3     C     0.0075     0.3605     0.7917
A_2     C     0.0655     0.3534     0.5173
A_0     C     0.5129     0.993     0.6555
A_2     C     0.2427     0.7198     0.8823
A_0     C     0.9199     0.5552     0.9934
A_3     C     0.8003     0.3579     0.1064
A_1     C     0.959     0.8598     0.0351
A_1     C     0.5484     0.62     0.8702
A_3     C     0.7529     0.981     0.0639
A_1     C     0.3624     0.2995     0.7633
A_1     C     0.8395     0.0387     0.665
A_3     C     0.7639     0.0285     0.105
A_3     C     0.9786     0.2267     0.7398
A_0     C     0.287     0.927     0.9491
A_2     C     0.3495     0.639     0.4313
A_0     C     0.5885     0.5474     0.2073
A_2     C     0.1678     0.9512     0.6654
A_3     C     0.5702     0.3162     0.4869
A_0     C     0.8919     0.5799     0.073
A_0     C     0.2197     0.3375     0.347
A_0     C     0.5535     0.4642     0.0055
A_0     C     0.3776     0.3837     0.864
A_0     C     0.5317     0.5259     0.4602
A_1     C     0.0194     0.2629     0.1989
A_3     C     0.0073     0.3815     0.1645
A_2     C     0.2507     0.8438     0.022
A_3     C     0.402     0.4479     0.8299
A_0     C     0.9684     0.8464     0.7269
A_0     C     0.487     0.0559     0.3122
A_3     C     0.8156     0.3167     0.9594
A_3     C     0.2372     0.9099     0.7413
A_1     C     0.9999     0.8316     0.5318
A_1     C     0.7032     0.3923     0.2557
A_0     C     0.797     0.4361     0.4568
A_1     C     0.941     0.0557     0.1177
A_3     C     0.6611     0.6655     0.3404
A_3     C     0.0265     0.5394     0.9444
A_0     C     0.2639     0.8975     0.1035
A_1     C     0.2554     0.6135     0.3954
A_2     C     0.2498     0.5232     0.0677
A_2     C     0.6885     0.0984     0.4847
A_1     C     0.0605     0.8367     0.1968
A_2     C     0.5423     0.074     0.4503
A_3     C     0.3254     0.5807     0.2713
A_0     C     0.3314     0.2451     0.1525
A_3     C     0.6258     0.0458     0.6177
A_0     C     0.7884     0.8664     0.4366
A_3     C     0.769     0.4652     0.6488
A_3     C     0.9102     0.3325     0.0877
A_1     C     0.8685     0.9731     0.0645
A_2     C     0.9778     0.8082     0.4212
A_0     C     0.6998     0.5176     0.679
A_1     C     0.6037     0.579     0.1082
A_3     C     0.0475     0.6399     0.4252
A_0     C     0.5844     0.302     0.8388
A_2     C     0.8792     0.2446     0.5767
A_0     C     0.4948     0.231     0.5173
A_0     C     0.1954     0.5373     0.813
A_0     C     0.7169     0.413     0.926
A_1     C     0.6221     0.8709     0.5451
A_0     C     0.3955     0.9092     0.0091
A_3     C     0.1597     0.0877     0.4682
A_0     C     0.3204     0.7381     0.8456
A_0     C     0.2407     0.1793     0.1488
A_0     C     0.4115     0.6466     0.8397
A_1     C     0.921     0.1764     0.0113
A_3     C     0.4369     0.9397     0.8521
A_3     C     0.154     0.8523     0.4985
A_3     C     0.2417     0.98     0.5043
A_0     C     0.462     0.9562     0.1813
A_1     C     0.5026     0.7792     0.0727
A_0     C     0.311     0.8666     0.6609
A_0     C     0.3723     0.8354     0.1309
A_3     C     0.6151     0.912     0.9756
A_3     C     0.0672     0.6052     0.4628
A_2     C     0.5488     0.7658     0.1531
A_3     C     0.3132     0.7558     0.4459
A_0     C     0.3999     0.5866     0.4052
A_0     C     0.3789     0.8178     0.9678
A_3     C     0.499     0.3519     0.9663
A_2     C     0.7204     0.2705     0.1129
A_0     C     0.002     0.1906     0.9474
A_0     C     0.7864     0.5436     0.9016
A_0     C     0.9707     0.1828     0.128
A_2     C     0.0025     0.1517     0.7513
A_3     C     0.0459     0.1617     0.1246
A_3     C     0.7576     0.2176     0.3007
A_3     C     0.2956     0.6003     0.7085
A_0     C     0.7263     0.69     0.7721
A_2     C     0.4525     0.4547     0.9169
A_1     C     0.9181     0.0496     0.0251
A_0     C     0.7184     0.7206     0.959
A_1     C     0.2002     0.1     0.4578
A_3     C     0.8663     0.7843     0.7851
A_0     C     0.6133     0.4905     0.0663
A_0     C     0.8764     0.502     0.879
A_0     C     0.0552     0.1688     0.5174
A_1     C     0.7353     0.9536     0.5246
A_3     C     0.5971     0.9578     0.0349
A_1     C     0.7716     0.8476     0.6982
A_3     C     0.4093     0.3856     0.2847
A_0     C     0.6038     0.176     0.5031
A_1     C     0.4963     0.658     0.4279
A_3     C     0.5441     0.1746     0.0537
A_2     C     0.1891     0.7424     0.9674
A_2     C     0.9485     0.6674     0.1592
A_1     C     0.5119     0.2727     0.799
A_1     C     0.0155     0.3416     0.0798
A_1     C     0.0244     0.5601     0.9538
A_1     C     0.8437     0.4125     0.2864
A_3     C     0.4642     0.8977     0.647
A_0     C     0.1805     0.9071     0.57
A_0     C     0.6614     0.9593     0.5394
A_2     C     0.9606     0.0918     0.89
A_2     C     0.6268     0.5847     0.3033
A_1     C     0.8001     0.7655     0.5562
A_2     C     0.2454     0.2564     0.2134
A_0     C     0.5496     0.827     0.008
A_3     C     0.9777     0.7516     0.3165
A_2     C     0.2833     0.482     0.0745
A_2     C     0.8863     0.6084     0.3234
A_3     C     0.2217     0.9445     0.0182
A_1     C     0.9504     0.0179     0.2047
A_2     C     0.197     0.7846     0.5409
A_2     C     0.1739     0.905     0.6157
