MAT-24

loop_
_symmetry_equiv_pos_as_xyz
  x,y,z
_cell_length_a          25.8652
_cell_length_b          22.1673
_cell_length_c          16.6588
_cell_angle_alpha       90.0000
_cell_angle_beta        90.0000
_cell_angle_gamma       90.0000
loop_
_atom_site_label
_atom_site_type_symbol
_atom_site_fract_x
_atom_site_fract_y
_atom_site_fract_z
A_2     C     0.7081     0.7417     0.3486
A_0     C     0.4182     0.8123     0.5868
A_1     C     0.4887     0.9658     0.544
A_1     C     0.8984     0.0509     0.9553
A_3     C     0.8885     0.6139     0.1323
A_2     C     0.8598     0.0171     0.8207
A_2     C     0.0369     0.7937     0.8838
A_3     C     0.7076     0.6337     0.1658
A_1     C     0.1401     0.2698     0.5458
A_2     C     0.3333     0.3196     0.8518
A_1     C     0.5632     0.8208     0.3766
A_3     C     0.353     0.1474     0.6971
A_1     C     0.5745     0.4597     0.1082
A_0     C     0.3518     0.0364     0.4147
A_1     C     0.6289     0.7687     0.2487
A_0     C     0.3429     0.8052     0.2643
A_0     C     0.4342     0.5349     0.3391
A_3     C     0.3023     0.6689     0.3581
A_1     C     0.1085     0.2468     0.7584
A_1     C     0.4333     0.3553     0.0031
A_2     C     0.2905     0.688     0.2642
A_3     C     0.673     0.9521     0.1911
A_3     C     0.9291     0.0025     0.3529
A_3     C     0.8075     0.5598     0.6542
A_2     C     0.854     0.7379     0.2846
A_0     C     0.7049     0.8438     0.424
A_3     C     0.4459     0.7922     0.0463
A_0     C     0.7941     0.4109     0.422
A_3     C     0.7485     0.1896     0.6414
A_1     C     0.1166     0.2177     0.3525
A_3     C     0.1757     0.6446     0.7862
A_2     C     0.7629     0.8173     0.1838
A_3     C     0.3975     0.3889     0.1302
A_2     C     0.4297     0.8553     0.1342
A_3     C     0.7444     0.534     0.4653
A_3     C     0.0651     0.6255     0.5043
A_1     C     0.5903     0.4588     0.7602
A_2     C     0.1258     0.0512     0.6693
A_2     C     0.6904     0.0281     0.4443
A_0     C     0.6116     0.3038     0.5047
A_2     C     0.6924     0.6058     0.9356
A_2     C     0.9955     0.8761     0.1251
A_2     C     0.1105     0.4106     0.6563
A_3     C     0.8924     0.2275     0.1806
A_2     C     0.4098     0.311     0.2335
A_1     C     0.1476     0.9817     0.0525
A_0     C     0.7491     0.2383     0.8921
A_2     C     0.6186     0.3654     0.5623
A_1     C     0.3328     0.3343     0.8366
A_3     C     0.6534     0.2136     0.2578
A_2     C     0.5671     0.3118     0.2399
A_0     C     0.781     0.1561     0.7476
A_0     C     0.7074     0.184     0.1495
A_0     C     0.386     0.6223     0.4389
A_2     C     0.4197     0.002     0.307
A_2     C     0.8782     0.5211     0.5163
A_1     C     0.2835     0.9136     0.4917
A_2     C     0.0721     0.203     0.4821
A_3     C     0.5885     0.1223     0.0715
A_2     C     0.5178     0.0066     0.8418
A_2     C     0.4674     0.8684     0.2143
A_2     C     0.3364     0.0898     0.5916
A_1     C     0.4076     0.5264     0.6787
A_0     C     0.795     0.1347     0.7592
A_0     C     0.3898     0.7006     0.093
A_0     C     0.6529     0.1171     0.0761
A_1     C     0.2349     0.7793     0.4194
A_3     C     0.6073     0.3917     0.3459
A_0     C     0.6538     0.8453     0.149
A_2     C     0.3656     0.7482     0.2426
A_0     C     0.7939     0.2016     0.5467
A_1     C     0.7575     0.5424     0.0286
A_3     C     0.6541     0.1315     0.9401
A_2     C     0.6856     0.7762     0.9362
A_1     C     0.9511     0.5183     0.2877
A_2     C     0.9743     0.0483     0.4643
A_0     C     0.9492     0.8641     0.4414
A_3     C     0.4816     0.5785     0.4968
A_2     C     0.8143     0.1845     0.8038
A_2     C     0.987     0.7586     0.9673
A_3     C     0.529     0.5919     0.4283
A_3     C     0.9755     0.8664     0.2502
A_0     C     0.9663     0.3085     0.5907
A_2     C     0.3133     0.7113     0.5328
A_3     C     0.1432     0.1167     0.5748
A_1     C     0.9434     0.1781     0.2906
A_1     C     0.4137     0.6057     0.3166
A_1     C     0.9217     0.3319     0.0872
A_1     C     0.4536     0.5317     0.2205
A_1     C     0.7874     0.3955     0.989
A_1     C     0.4524     0.0286     0.7499
A_0     C     0.7723     0.2638     0.8875
A_0     C     0.2235     0.9458     0.821
A_2     C     0.5599     0.5857     0.8303
A_0     C     0.5946     0.7335     0.621
A_1     C     0.6171     0.3861     0.3424
A_0     C     0.0665     0.785     0.6655
A_0     C     0.0308     0.8499     0.9646
A_1     C     0.4679     0.3964     0.9783
A_3     C     0.9615     0.6474     0.0839
A_3     C     0.3813     0.8748     0.762
A_1     C     0.0194     0.1087     0.065
A_1     C     0.5596     0.8013     0.3905
A_0     C     0.8279     0.9989     0.5023
A_1     C     0.9039     0.5486     0.6993
A_1     C     0.988     0.6906     0.7456
A_3     C     0.8748     0.8256     0.2136
A_2     C     0.6478     0.2367     0.873
A_2     C     0.3066     0.0419     0.0171
A_1     C     0.5977     0.2902     0.4309
A_1     C     0.9308     0.3959     0.8529
A_0     C     0.4955     0.8301     0.7209
A_2     C     0.5341     0.9658     0.4956
A_1     C     0.7988     0.5562     0.8604
A_0     C     0.1871     0.8371     0.7721
A_0     C     0.9411     0.1001     0.1941
A_1     C     0.6108     0.4386     0.2537
A_2     C     0.1121     0.6628     0.9151
A_0     C     0.4273     0.7588     0.3769
A_0     C     0.8072     0.7181     0.8087
A_3     C     0.1001     0.1573     0.5192
A_1     C     0.6884     0.0151     0.582
A_3     C     0.162     0.6056     0.3421
A_2     C     0.9451     0.6821     0.6024
A_2     C     0.6021     0.4134     0.5073
A_1     C     0.3349     0.18     0.5774
A_3     C     0.1373     0.807     0.2135
A_2     C     0.5345     0.1515     0.7238
A_1     C     0.95     0.422     0.9385
A_1     C     0.2914     0.7789     0.7739
A_0     C     0.9761     0.7984     0.8267
A_2     C     0.971     0.7547     0.2528
A_3     C     0.3975     0.3122     0.6891
A_2     C     0.2827     0.3919     0.8044
A_0     C     0.6654     0.1891     0.4514
A_2     C     0.8537     0.3045     0.2518
A_0     C     0.3022     0.6315     0.0362
A_1     C     0.6881     0.6206     0.8763
A_2     C     0.4693     0.3411     0.4878
A_0     C     0.4834     0.7607     0.2856
A_3     C     0.079     0.1343     0.9585
A_1     C     0.8775     0.3019     0.8029
A_1     C     0.2865     0.2174     0.8325
A_2     C     0.5586     0.3638     0.306
A_2     C     0.3992     0.0793     0.8029
A_2     C     0.0126     0.5506     0.7006
A_0     C     0.2813     0.8304     0.6306
A_1     C     0.235     0.4878     0.3732
A_1     C     0.334     0.7614     0.5415
A_3     C     0.9079     0.6547     0.0038
A_1     C     0.8459     0.7026     0.864
A_1     C     0.5727     0.4018     0.245
A_2     C     0.383     0.1211     0.1219
A_1     C     0.7995     0.8212     0.785
A_3     C     0.6042     0.1481     0.8327
A_2     C     0.4314     0.6391     0.0361
A_0     C     0.3043     0.0772     0.9823
A_3     C     0.693     0.5471     0.4896
A_0     C     0.4052     0.972     0.7822
A_1     C     0.659     0.2332     0.6756
A_3     C     0.9417     0.0591     0.3117
A_0     C     0.5592     0.8058     0.2207
A_0     C     0.9042     0.5637     0.5384
A_0     C     0.0367     0.7063     0.5928
A_2     C     0.5224     0.0454     0.0261
A_2     C     0.828     0.7531     0.5019
A_3     C     0.2638     0.4498     0.8569
A_2     C     0.6572     0.5365     0.3092
A_2     C     0.2515     0.7024     0.7333
A_2     C     0.7233     0.6188     0.7448
A_1     C     0.7398     0.3701     0.2023
A_2     C     0.3436     0.4776     0.0799
A_3     C     0.6672     0.0975     0.6438
A_1     C     0.6939     0.9413     0.5648
A_1     C     0.6321     0.6037     0.1368
A_3     C     0.553     0.1457     0.489
A_2     C     0.641     0.3972     0.9389
A_0     C     0.9351     0.2619     0.8529
A_0     C     0.66     0.9235     0.4817
A_0     C     0.0763     0.8984     0.8971
A_2     C     0.6758     0.0909     0.5933
A_2     C     0.0602     0.7291     0.419
A_2     C     0.2522     0.9327     0.7725
A_0     C     0.6908     0.6507     0.531
A_2     C     0.4576     0.6938     0.683
A_1     C     0.8227     0.3576     0.9627
A_2     C     0.6465     0.0713     0.9854
A_2     C     0.1973     0.5341     0.3762
A_0     C     0.8765     0.2201     0.0399
A_1     C     0.7276     0.3465     0.1345
A_3     C     0.8594     0.858     0.7837
A_2     C     0.6882     0.1225     0.4048
A_0     C     0.0754     0.1219     0.8979
A_1     C     0.557     0.9002     0.6952
A_0     C     0.6663     0.6006     0.2014
A_2     C     0.3594     0.5528     0.0118
A_2     C     0.2853     0.1561     0.4285
A_2     C     0.177     0.1661     0.0579
A_1     C     0.062     0.9626     0.7984
A_3     C     0.0399     0.0871     0.9219
A_1     C     0.0973     0.3717     0.5506
A_2     C     0.5537     0.644     0.3349
A_3     C     0.6364     0.5727     0.4655
A_1     C     0.6832     0.2939     0.8755
A_0     C     0.6766     0.209     0.7448
A_0     C     0.4666     0.1043     0.4101
A_3     C     0.4348     0.9465     0.904
A_0     C     0.06     0.6939     0.8347
A_2     C     0.411     0.1806     0.7248
A_2     C     0.108     0.2956     0.7533
A_1     C     0.7863     0.9984     0.5637
A_1     C     0.443     0.6275     0.4694
A_3     C     0.2309     0.1752     0.499
A_2     C     0.5912     0.0833     0.0825
A_1     C     0.5717     0.5919     0.2066
A_3     C     0.8992     0.7877     0.0974
A_2     C     0.939     0.5081     0.3337
A_2     C     0.322     0.61     0.2224
A_2     C     0.4101     0.8464     0.7373
A_3     C     0.1344     0.2151     0.9742
A_0     C     0.1627     0.5828     0.9436
A_1     C     0.72     0.9702     0.4944
A_3     C     0.4074     0.4574     0.4647
A_0     C     0.8142     0.2163     0.4632
A_1     C     0.63     0.7996     0.9928
A_0     C     0.6477     0.4477     0.426
A_2     C     0.9339     0.0564     0.502
A_1     C     0.5785     0.162     0.5321
A_2     C     0.362     0.9136     0.0326
A_1     C     0.8336     0.4647     0.2512
A_3     C     0.3293     0.7705     0.0992
A_2     C     0.9108     0.329     0.5469
A_2     C     0.5715     0.0808     0.4191
A_3     C     0.6031     0.9433     0.9106
A_2     C     0.3524     0.0825     0.7299
A_2     C     0.3439     0.4703     0.2322
A_2     C     0.605     0.3171     0.546
A_1     C     0.9091     0.8497     0.9212
A_1     C     0.9331     0.1441     0.5809
A_2     C     0.1501     0.7349     0.8371
A_2     C     0.5224     0.9811     0.4029
A_3     C     0.526     0.7983     0.4126
A_3     C     0.9376     0.2685     0.6335
A_2     C     0.5022     0.3697     0.6363
A_1     C     0.8924     0.9277     0.7412
A_1     C     0.8836     0.446     0.4794
A_2     C     0.3631     0.3426     0.6144
