MAT-94

loop_
_symmetry_equiv_pos_as_xyz
  x,y,z
_cell_length_a          37.0993
_cell_length_b          49.8485
_cell_length_c          33.9554
_cell_angle_alpha       90.0000
_cell_angle_beta        90.0000
_cell_angle_gamma       90.0000
loop_
_atom_site_label
_atom_site_type_symbol
_atom_site_fract_x
_atom_site_fract_y
_atom_site_fract_z
A_1     C     0.7991     0.3095     0.0402
A_3     C     0.8132     0.5165     0.6809
A_0     C     0.9848     0.9794     0.8676
A_2     C     0.1009     0.3318     0.5711
A_0     C     0.3059     0.3152     0.109
A_3     C     0.2272     0.9762     0.6251
A_2     C     0.4656     0.3807     0.1341
A_3     C     0.5726     0.9032     0.6482
A_3     C     0.927     0.8665     0.512
A_2     C     0.755     0.6136     0.4774
A_3     C     0.896     0.7036     0.9558
A_2     C     0.6107     0.9284     0.8011
A_3     C     0.686     0.531     0.9652
A_2     C     0.5117     0.9121     0.7226
A_3     C     0.4051     0.7207     0.9767
A_0     C     0.7602     0.0874     0.8679
A_3     C     0.0026     0.4292     0.6606
A_3     C     0.6144     0.0778     0.1703
A_3     C     0.387     0.1509     0.8455
A_1     C     0.8547     0.5422     0.6637
A_1     C     0.0024     0.2394     0.4967
A_1     C     0.8859     0.7409     0.2564
A_2     C     0.473     0.8957     0.1418
A_2     C     0.4989     0.8247     0.7644
A_1     C     0.5894     0.4005     0.4085
A_3     C     0.3453     0.4016     0.7115
A_3     C     0.3756     0.6928     0.7041
A_2     C     0.3961     0.2397     0.5127
A_1     C     0.2122     0.2074     0.2832
A_3     C     0.1522     0.9987     0.3284
A_1     C     0.1848     0.4969     0.7371
A_0     C     0.639     0.6029     0.1269
A_2     C     0.7441     0.621     0.4528
A_3     C     0.1857     0.5329     0.1323
A_3     C     0.6202     0.4952     0.9886
A_3     C     0.606     0.6788     0.2362
A_3     C     0.1579     0.8213     0.9379
A_2     C     0.5303     0.8335     0.7118
A_3     C     0.9058     0.6713     0.1525
A_3     C     0.1363     0.8491     0.8639
A_1     C     0.6987     0.1321     0.4735
A_2     C     0.6169     0.9431     0.419
A_2     C     0.2208     0.9327     0.7868
A_0     C     0.7498     0.2593     0.4736
A_3     C     0.8534     0.6077     0.385
A_2     C     0.2144     0.0499     0.8196
A_0     C     0.844     0.3224     0.7787
A_2     C     0.4866     0.4702     0.0405
A_3     C     0.5012     0.6533     0.5137
A_3     C     0.6357     0.2731     0.2824
A_2     C     0.0652     0.3601     0.193
A_2     C     0.2248     0.0124     0.3207
A_2     C     0.8795     0.653     0.0859
A_3     C     0.4978     0.9291     0.9013
A_0     C     0.1983     0.9463     0.6918
A_1     C     0.4635     0.1492     0.3464
A_1     C     0.8287     0.0619     0.5069
A_1     C     0.643     0.6071     0.1581
A_3     C     0.0012     0.9271     0.1516
A_2     C     0.3151     0.4585     0.3585
A_1     C     0.8689     0.3782     0.8384
A_3     C     0.1108     0.2885     0.7037
A_2     C     0.6411     0.0564     0.0104
A_0     C     0.154     0.021     0.697
A_0     C     0.2581     0.3106     0.3002
A_3     C     0.5916     0.0573     0.8795
A_0     C     0.2344     0.656     0.2236
A_0     C     0.7025     0.1853     0.137
A_0     C     0.6472     0.4795     0.5771
A_0     C     0.3631     0.3986     0.8063
A_3     C     0.4692     0.0266     0.7473
A_2     C     0.1977     0.355     0.8283
A_1     C     0.1036     0.9149     0.3498
A_3     C     0.5047     0.2731     0.4012
A_3     C     0.4082     0.3993     0.9507
A_1     C     0.2739     0.6787     0.847
A_3     C     0.7341     0.182     0.0561
A_0     C     0.0587     0.5334     0.2324
A_1     C     0.3025     0.8506     0.3772
A_1     C     0.7999     0.8016     0.9752
A_2     C     0.6813     0.7391     0.7717
A_1     C     0.992     0.029     0.8274
A_2     C     0.4599     0.2969     0.1606
A_2     C     0.5345     0.5234     0.0511
A_0     C     0.3712     0.7035     0.0344
A_1     C     0.6206     0.807     0.6417
A_2     C     0.4849     0.7208     0.3489
A_3     C     0.1231     0.2005     0.1576
A_3     C     0.4331     0.4899     0.1128
A_1     C     0.1447     0.8909     0.8435
A_2     C     0.881     0.8802     0.3552
A_1     C     0.2011     0.0216     0.717
A_2     C     0.6058     0.668     0.873
A_2     C     0.1582     0.0007     0.4881
A_2     C     0.7203     0.9362     0.2929
A_3     C     0.2717     0.4972     0.018
A_2     C     0.3148     0.1087     0.1667
A_1     C     0.6681     0.2231     0.019
A_1     C     0.9078     0.7096     0.6013
A_1     C     0.6817     0.9666     0.2165
A_1     C     0.5039     0.8316     0.8089
A_3     C     0.9078     0.8227     0.0831
A_3     C     0.7936     0.6547     0.5168
A_3     C     0.0892     0.9596     0.9725
A_0     C     0.9982     0.5476     0.9944
A_1     C     0.0748     0.0602     0.2891
A_3     C     0.5215     0.3718     0.8051
A_3     C     0.8355     0.8096     0.8859
A_0     C     0.7818     0.3959     0.4197
A_0     C     0.373     0.8945     0.6355
A_1     C     0.885     0.1921     0.9786
A_2     C     0.2591     0.4571     0.3588
A_0     C     0.2871     0.1456     0.4339
A_1     C     0.0653     0.7562     0.5942
A_1     C     0.2887     0.2818     0.4087
A_1     C     0.8254     0.3653     0.5493
A_1     C     0.1611     0.9956     0.0125
A_2     C     0.4966     0.0264     0.8356
A_3     C     0.0057     0.8465     0.4154
A_3     C     0.9648     0.7288     0.6626
A_3     C     0.6331     0.4481     0.6091
A_2     C     0.188     0.2672     0.0881
A_0     C     0.1284     0.1026     0.0721
A_3     C     0.6407     0.0017     0.1035
A_2     C     0.0819     0.5409     0.7528
A_0     C     0.448     0.8346     0.4778
A_1     C     0.1127     0.9543     0.2587
A_2     C     0.9715     0.4636     0.8765
A_1     C     0.725     0.1782     0.3074
A_1     C     0.1223     0.672     0.5377
A_3     C     0.2648     0.2404     0.4047
A_0     C     0.9775     0.9137     0.4234
A_3     C     0.6204     0.8773     0.8138
A_0     C     0.0044     0.8591     0.0018
A_2     C     0.6137     0.5616     0.4142
A_1     C     0.0726     0.8658     0.5948
A_1     C     0.4557     0.1274     0.0377
A_0     C     0.9587     0.4567     0.2677
A_2     C     0.1418     0.8876     0.8246
A_2     C     0.2997     0.0972     0.0255
A_0     C     0.0714     0.3462     0.5113
A_0     C     0.61     0.4421     0.7795
A_0     C     0.8259     0.1534     0.9807
A_2     C     0.7861     0.8634     0.6537
A_2     C     0.388     0.2871     0.5393
A_2     C     0.7783     0.3862     0.9114
A_2     C     0.2813     0.8737     0.8859
A_1     C     0.0541     0.0177     0.7502
A_3     C     0.907     0.3098     0.8698
A_2     C     0.4507     0.1335     0.5929
A_0     C     0.2751     0.9255     0.4764
A_3     C     0.8418     0.5496     0.9411
A_1     C     0.7024     0.9628     0.6803
A_0     C     0.903     0.1669     0.9968
A_3     C     0.9985     0.6821     0.5807
A_2     C     0.8574     0.7844     0.1299
A_3     C     0.4432     0.5553     0.626
A_2     C     0.9455     0.2919     0.6209
A_0     C     0.1109     0.8218     0.9403
A_1     C     0.576     0.7929     0.2866
A_0     C     0.7108     0.7374     0.1096
A_2     C     0.0041     0.5719     0.9614
A_3     C     0.1676     0.4088     0.3194
A_3     C     0.8957     0.7202     0.6423
A_0     C     0.7683     0.1468     0.6421
A_0     C     0.6136     0.1433     0.0434
A_3     C     0.6805     0.2875     0.5533
A_0     C     0.5254     0.4538     0.5446
A_2     C     0.7964     0.628     0.2453
A_0     C     0.2814     0.8952     0.0718
A_2     C     0.0629     0.664     0.7721
A_2     C     0.9462     0.7549     0.9714
A_0     C     0.5473     0.0029     0.1729
A_1     C     0.6188     0.1346     0.3041
A_0     C     0.7317     0.6986     0.4107
A_0     C     0.244     0.3122     0.0227
A_1     C     0.2402     0.8253     0.4477
A_3     C     0.6701     0.6418     0.4961
A_0     C     0.4796     0.476     0.6491
A_1     C     0.7158     0.8004     0.7474
A_0     C     0.6056     0.9795     0.7484
A_0     C     0.0686     0.1881     0.3262
A_2     C     0.8711     0.4482     0.3071
A_1     C     0.784     0.9026     0.9541
A_1     C     0.3842     0.9986     0.0517
A_1     C     0.2865     0.117     0.0005
A_3     C     0.8353     0.5934     0.6214
A_0     C     0.9153     0.2988     0.9304
A_2     C     0.1969     0.3059     0.6536
A_1     C     0.0124     0.8105     0.3428
A_0     C     0.5589     0.4363     0.7996
A_2     C     0.6459     0.6553     0.822
A_3     C     0.8178     0.5055     0.4793
A_3     C     0.5033     0.2263     0.9654
A_0     C     0.8957     0.2041     0.2201
A_0     C     0.0631     0.3788     0.7271
A_2     C     0.7372     0.1791     0.5344
A_1     C     0.0854     0.5018     0.7433
A_0     C     0.1757     0.5975     0.8819
A_1     C     0.0605     0.6303     0.9577
A_3     C     0.7347     0.5799     0.3755
A_0     C     0.2208     0.7907     0.9902
A_0     C     0.0554     0.4958     0.6808
A_2     C     0.3954     0.0191     0.5959
A_1     C     0.8328     0.638     0.9978
A_3     C     0.3793     0.0254     0.1281
A_2     C     0.3802     0.772     0.435
A_1     C     0.1989     0.9737     0.3318
A_3     C     0.2234     0.3409     0.6935
A_0     C     0.1368     0.8033     0.4669
A_3     C     0.7126     0.8666     0.837
A_2     C     0.5374     0.7255     0.0734
A_2     C     0.9457     0.1045     0.4144
A_2     C     0.2192     0.8746     0.1551
A_1     C     0.3646     0.6033     0.9828
A_3     C     0.7176     0.6029     0.3495
A_1     C     0.2372     0.3973     0.7792
A_2     C     0.3418     0.9182     0.8596
A_3     C     0.2582     0.5474     0.9782
A_3     C     0.1898     0.2316     0.0411
A_1     C     0.5175     0.4644     0.1508
A_2     C     0.0038     0.8859     0.2214
A_1     C     0.9889     0.341     0.7942
A_0     C     0.5588     0.2977     0.0741
A_2     C     0.1912     0.511     0.2741
A_1     C     0.4561     0.6589     0.0301
A_1     C     0.1318     0.0285     0.2139
A_3     C     0.3181     0.975     0.5516
A_0     C     0.005     0.4874     0.7631
A_3     C     0.3238     0.6879     0.9993
A_2     C     0.9192     0.1141     0.9701
A_0     C     0.0711     0.3366     0.5092
A_3     C     0.6106     0.2977     0.4435
A_0     C     0.6506     0.4422     0.4605
A_2     C     0.1201     0.4529     0.4858
A_3     C     0.5701     0.7855     0.1982
A_0     C     0.1616     0.7398     0.998
A_1     C     0.611     0.0786     0.013
A_2     C     0.4943     0.8943     0.5656
A_1     C     0.3052     0.1449     0.011
A_2     C     0.9028     0.7578     0.7312
A_1     C     0.2665     0.6032     0.834
A_2     C     0.2569     0.7307     0.5116
A_0     C     0.0921     0.8077     0.6331
A_2     C     0.9607     0.0543     0.5384
A_0     C     0.9518     0.6938     0.9103
A_3     C     0.9187     0.6554     0.6894
A_0     C     0.927     0.4314     0.8442
A_1     C     0.2095     0.2828     0.5901
A_0     C     0.0559     0.3367     0.2036
A_1     C     0.8973     0.8268     0.4822
A_1     C     0.1728     0.6113     0.5869
A_3     C     0.7315     0.8963     0.8519
A_0     C     0.2255     0.1474     0.2034
A_1     C     0.9764     0.612     0.3172
A_3     C     0.6055     0.0993     0.1868
A_2     C     0.8464     0.054     0.0265
A_2     C     0.3774     0.2814     0.7443
A_1     C     0.9883     0.8005     0.5537
A_2     C     0.1467     0.3144     0.9895
A_3     C     0.4492     0.1979     0.5096
A_0     C     0.7187     0.5692     0.3235
A_2     C     0.3465     0.578     0.8698
A_2     C     0.7742     0.9376     0.187
A_1     C     0.0254     0.7905     0.4707
A_3     C     0.1137     0.3064     0.3479
A_2     C     0.5917     0.0171     0.2024
A_3     C     0.7146     0.5159     0.9345
A_0     C     0.9181     0.6221     0.5014
A_3     C     0.8581     0.7596     0.4456
A_3     C     0.3205     0.4872     0.9033
A_0     C     0.8162     0.4207     0.347
A_0     C     0.9164     0.3973     0.5091
A_2     C     0.094     0.8255     0.8627
A_3     C     0.9731     0.1024     0.2875
A_3     C     0.9345     0.7305     0.432
