MAT-86

loop_
_symmetry_equiv_pos_as_xyz
  x,y,z
_cell_length_a          26.5135
_cell_length_b          17.5788
_cell_length_c          47.6171
_cell_angle_alpha       90.0000
_cell_angle_beta        90.0000
_cell_angle_gamma       90.0000
loop_
_atom_site_label
_atom_site_type_symbol
_atom_site_fract_x
_atom_site_fract_y
_atom_site_fract_z
A_0     C     0.7973     0.2958     0.7544
A_1     C     0.6204     0.2021     0.1633
A_3     C     0.2048     0.8645     0.6932
A_2     C     0.8869     0.8773     0.4931
A_1     C     0.4705     0.4662     0.2685
A_0     C     0.3746     0.4253     0.8981
A_1     C     0.3308     0.3428     0.3636
A_1     C     0.5792     0.0203     0.4664
A_0     C     0.7856     0.0605     0.6425
A_3     C     0.0251     0.5144     0.7173
A_0     C     0.7622     0.3992     0.7797
A_0     C     0.0497     0.8778     0.562
A_1     C     0.0903     0.1314     0.7722
A_2     C     0.8607     0.8118     0.347
A_1     C     0.6227     0.6497     0.5092
A_0     C     0.7316     0.5138     0.0468
A_0     C     0.9124     0.5629     0.7112
A_3     C     0.8215     0.9494     0.1609
A_0     C     0.5317     0.0525     0.4976
A_0     C     0.5108     0.48     0.6541
A_1     C     0.5364     0.0287     0.1843
A_3     C     0.1422     0.7957     0.9171
A_2     C     0.9051     0.2169     0.9084
A_1     C     0.8612     0.9426     0.8447
A_2     C     0.1184     0.0033     0.013
A_2     C     0.1529     0.9963     0.6369
A_0     C     0.6648     0.5652     0.2261
A_3     C     0.1325     0.5139     0.955
A_2     C     0.0296     0.9551     0.567
A_1     C     0.044     0.4769     0.503
A_3     C     0.6933     0.5754     0.7486
A_3     C     0.6336     0.6367     0.4706
A_2     C     0.8263     0.6262     0.0806
A_0     C     0.7744     0.3597     0.1448
A_1     C     0.6201     0.3377     0.2095
A_2     C     0.9959     0.9446     0.1162
A_3     C     0.3071     0.9745     0.1151
A_3     C     0.8585     0.1821     0.1681
A_1     C     0.6655     0.5059     0.2031
A_2     C     0.6653     0.3374     0.8466
A_0     C     0.0244     0.8407     0.7647
A_0     C     0.0411     0.2076     0.4413
A_1     C     0.1329     0.7596     0.5582
A_1     C     0.7747     0.4785     0.8267
A_2     C     0.8164     0.7906     0.9822
A_3     C     0.3629     0.489     0.9908
A_1     C     0.2991     0.1233     0.8753
A_0     C     0.1136     0.4181     0.3931
A_3     C     0.1247     0.4492     0.8
A_1     C     0.4216     0.4221     0.2673
A_1     C     0.8494     0.2735     0.386
A_2     C     0.6793     0.9553     0.0597
A_3     C     0.9558     0.2955     0.2651
A_3     C     0.0762     0.0458     0.2864
A_3     C     0.6366     0.4237     0.6556
A_1     C     0.2274     0.1923     0.3041
A_2     C     0.8215     0.6291     0.6428
A_3     C     0.9677     0.8851     0.8695
A_2     C     0.3642     0.5632     0.2105
A_2     C     0.3414     0.3873     0.2799
A_1     C     0.0799     0.4168     0.5429
A_1     C     0.345     0.855     0.9181
A_3     C     0.9568     0.6911     0.4576
A_0     C     0.8438     0.9031     0.3079
A_2     C     0.0209     0.2565     0.359
A_0     C     0.2793     0.9669     0.2125
A_0     C     0.8508     0.8409     0.9759
A_1     C     0.9414     0.4558     0.1962
A_1     C     0.5255     0.8521     0.7428
A_2     C     0.4128     0.3307     0.726
A_2     C     0.3536     0.5779     0.003
A_3     C     0.7106     0.9356     0.7266
A_1     C     0.0275     0.3271     0.1495
A_0     C     0.107     0.3837     0.5809
A_2     C     0.5721     0.7562     0.229
A_3     C     0.17     0.1151     0.4921
A_3     C     0.8628     0.5427     0.5149
A_0     C     0.7483     0.9184     0.0712
A_0     C     0.187     0.1348     0.9357
A_2     C     0.6122     0.1938     0.494
A_3     C     0.8704     0.0367     0.5952
A_1     C     0.1683     0.8503     0.6555
A_2     C     0.8594     0.8459     0.7338
A_3     C     0.2783     0.1207     0.7386
A_0     C     0.1324     0.4036     0.6514
A_0     C     0.6065     0.6331     0.2841
A_2     C     0.2175     0.7223     0.1359
A_2     C     0.8548     0.0692     0.406
A_1     C     0.4971     0.8007     0.7409
A_2     C     0.7129     0.2166     0.7099
A_2     C     0.6212     0.2223     0.7839
A_3     C     0.4546     0.3661     0.1131
A_2     C     0.7175     0.6046     0.2085
A_1     C     0.5519     0.8519     0.1027
A_2     C     0.0484     0.6101     0.6994
A_1     C     0.241     0.1677     0.3211
A_3     C     0.1068     0.6195     0.2769
A_1     C     0.1212     0.999     0.0895
A_1     C     0.6046     0.781     0.9828
A_0     C     0.2172     0.5416     0.8001
A_3     C     0.1924     0.3077     0.5213
A_1     C     0.6565     0.3376     0.9716
A_2     C     0.9616     0.1722     0.684
A_0     C     0.1897     0.8571     0.5775
A_3     C     0.4711     0.7664     0.9875
A_0     C     0.9684     0.9583     0.0146
A_2     C     0.7759     0.9391     0.5905
A_0     C     0.2319     0.586     0.8343
A_2     C     0.4688     0.3699     0.9394
A_3     C     0.1793     0.0186     0.2723
A_0     C     0.3038     0.0975     0.7848
A_2     C     0.2768     0.67     0.5236
A_3     C     0.3399     0.4325     0.5002
A_3     C     0.6912     0.0381     0.0233
A_2     C     0.6777     0.8377     0.9303
A_0     C     0.9955     0.3042     0.3854
A_3     C     0.3152     0.3617     0.2274
A_1     C     0.4715     0.6383     0.7358
A_2     C     0.6193     0.0314     0.6834
A_2     C     0.8483     0.3383     0.2119
A_2     C     0.5603     0.7346     0.6574
A_1     C     0.3558     0.6614     0.9302
A_2     C     0.6464     0.5471     0.8658
A_3     C     0.2082     0.4916     0.0956
A_0     C     0.6805     0.2344     0.9545
A_0     C     0.2443     0.5318     0.2033
A_2     C     0.5499     0.3701     0.3172
A_3     C     0.0533     0.2222     0.293
A_0     C     0.1744     0.6831     0.9696
A_2     C     0.6875     0.5089     0.9562
A_1     C     0.2985     0.7989     0.1469
A_3     C     0.3896     0.8239     0.0624
A_1     C     0.5892     0.0767     0.3509
A_2     C     0.0365     0.3381     0.563
A_1     C     0.359     0.6158     0.3402
A_0     C     0.1829     0.6564     0.9343
A_0     C     0.9949     0.4078     0.8294
A_2     C     0.0164     0.6094     0.3444
A_3     C     0.7581     0.8104     0.8392
A_0     C     0.1206     0.8463     0.9619
A_1     C     0.6257     0.6461     0.186
A_3     C     0.7567     0.1948     0.4172
A_3     C     0.4412     0.9909     0.086
A_0     C     0.569     0.7239     0.2262
A_0     C     0.7732     0.9963     0.8153
A_0     C     0.6348     0.6302     0.9354
A_3     C     0.8405     0.5773     0.3991
A_0     C     0.5234     0.0674     0.646
A_0     C     0.3086     0.7627     0.4988
A_1     C     0.3306     0.2426     0.3503
A_2     C     0.2701     0.851     0.1084
A_2     C     0.1503     0.3569     0.1994
A_0     C     0.9086     0.8815     0.9282
A_2     C     0.1893     0.9565     0.7386
A_3     C     0.2171     0.6939     0.2754
A_1     C     0.3188     0.8488     0.1873
A_0     C     0.8123     0.4783     0.4538
A_0     C     0.7816     0.2163     0.1972
A_3     C     0.8813     0.5217     0.9492
A_2     C     0.1872     0.8906     0.7463
A_3     C     0.4298     0.2933     0.4808
A_0     C     0.4607     0.2445     0.4311
A_3     C     0.0928     0.137     0.4612
A_2     C     0.6641     0.9392     0.2162
A_0     C     0.0298     0.8891     0.7071
A_0     C     0.5152     0.1453     0.9223
A_1     C     0.4007     0.5085     0.5824
A_2     C     0.5337     0.7519     0.6242
A_2     C     0.7249     0.4411     0.766
A_2     C     0.2933     0.196     0.5331
A_3     C     0.8549     0.8904     0.9578
A_3     C     0.1326     0.3515     0.1623
A_3     C     0.7085     0.8639     0.8815
A_2     C     0.941     0.3273     0.8132
A_0     C     0.0215     0.4508     0.2689
A_1     C     0.8475     0.4812     0.8269
A_2     C     0.1371     0.0118     0.4113
A_2     C     0.0586     0.5422     0.6381
A_0     C     0.7013     0.6817     0.9235
A_2     C     0.2456     0.8198     0.1584
A_3     C     0.8943     0.5442     0.047
A_3     C     0.5721     0.5142     0.418
A_3     C     0.3865     0.7916     0.8721
A_3     C     0.1852     0.3963     0.6938
A_2     C     0.4971     0.5198     0.4897
A_2     C     0.4897     0.4901     0.0063
A_2     C     0.5761     0.0378     0.8753
A_1     C     0.6024     0.8368     0.3859
A_3     C     0.5422     0.3738     0.1838
A_3     C     0.1916     0.0761     0.688
A_3     C     0.3833     0.576     0.9831
A_0     C     0.0005     0.7959     0.6289
A_1     C     0.4445     0.052     0.7166
A_2     C     0.1877     0.9351     0.5441
A_2     C     0.4493     0.9426     0.6463
A_2     C     0.7633     0.6594     0.9785
A_0     C     0.3331     0.9647     0.5073
A_2     C     0.1657     0.8543     0.3469
A_3     C     0.717     0.5745     0.6295
A_3     C     0.0652     0.8695     0.8222
A_1     C     0.6898     0.405     0.9711
A_3     C     0.626     0.2688     0.5954
A_0     C     0.3031     0.6871     0.9135
A_3     C     0.0796     0.0564     0.527
A_3     C     0.4091     0.5545     0.03
A_3     C     0.0866     0.7841     0.7075
A_1     C     0.0833     0.7659     0.8426
A_2     C     0.2442     0.0714     0.5485
A_0     C     0.1355     0.4059     0.6518
A_0     C     0.5889     0.2809     0.6818
A_2     C     0.5204     0.8286     0.2969
A_2     C     0.1642     0.4157     0.9346
A_3     C     0.9224     0.2151     0.2525
A_0     C     0.1833     0.1106     0.3659
A_0     C     0.3821     0.9479     0.5355
A_0     C     0.3726     0.8366     0.0156
A_1     C     0.7873     0.6067     0.3393
A_0     C     0.7491     0.0192     0.3861
A_3     C     0.0035     0.3751     0.2314
A_1     C     0.7143     0.0535     0.4868
A_0     C     0.9814     0.8934     0.2391
A_3     C     0.5032     0.1395     0.838
A_2     C     0.466     0.4093     0.1524
A_3     C     0.9905     0.174     0.917
A_3     C     0.3406     0.3613     0.8941
A_0     C     0.0197     0.6307     0.5524
A_2     C     0.9498     0.0776     0.522
A_1     C     0.2202     0.0576     0.8273
A_3     C     0.046     0.5746     0.3483
A_0     C     0.0841     0.7746     0.4604
A_0     C     0.0008     0.6396     0.5289
A_2     C     0.2098     0.4973     0.7134
A_3     C     0.3205     0.4613     0.7764
A_3     C     0.4359     0.7987     0.8491
A_1     C     0.9265     0.5939     0.794
A_2     C     0.1437     0.384     0.4367
A_0     C     0.1072     0.9245     0.4697
A_3     C     0.2735     0.2524     0.494
A_0     C     0.9698     0.8158     0.4354
A_3     C     0.6915     0.7844     0.9387
A_3     C     0.5831     0.2845     0.1107
A_1     C     0.5047     0.9728     0.1601
A_2     C     0.7504     0.2646     0.9374
A_1     C     0.0848     0.7867     0.3695
A_3     C     0.624     0.791     0.0426
A_1     C     0.1066     0.0414     0.3953
A_1     C     0.0108     0.2343     0.5917
A_0     C     0.6116     0.5022     0.2169
A_0     C     0.9965     0.9435     0.2694
A_2     C     0.8582     0.277     0.8644
A_1     C     0.3497     0.0592     0.3617
A_0     C     0.9425     0.2894     0.6729
A_2     C     0.0802     0.9072     0.2799
A_0     C     0.9081     0.5937     0.5161
A_1     C     0.9617     0.5561     0.151
A_2     C     0.5785     0.8874     0.8123
A_2     C     0.3583     0.0284     0.2426
A_0     C     0.652     0.6438     0.0516
A_1     C     0.1898     0.5271     0.6968
A_3     C     0.0291     0.3568     0.0488
A_0     C     0.1513     0.4401     0.3944
A_1     C     0.2551     0.4494     0.6443
A_0     C     0.6281     0.7591     0.1807
A_0     C     0.6798     0.3088     0.6947
A_1     C     0.3378     0.8899     0.3197
A_1     C     0.1935     0.584     0.0519
A_1     C     0.196     0.557     0.7176
A_0     C     0.8974     0.0731     0.1153
A_2     C     0.5885     0.7874     0.8158
A_0     C     0.048     0.1707     0.1493
A_1     C     0.542     0.1659     0.7549
A_0     C     0.1599     0.3278     0.1115
A_0     C     0.5198     0.0561     0.4171
A_0     C     0.7057     0.4988     0.4525
A_1     C     0.6423     0.2272     0.0546
A_2     C     0.4485     0.2161     0.3854
A_3     C     0.8229     0.2258     0.4276
A_2     C     0.1147     0.3161     0.6299
A_0     C     0.4283     0.544     0.1903
A_0     C     0.7974     0.2021     0.2509
A_1     C     0.7083     0.0235     0.6425
A_3     C     0.2977     0.6707     0.2049
A_1     C     0.159     0.0337     0.9355
A_2     C     0.539     0.6945     0.2909
A_2     C     0.0837     0.4361     0.1669
A_2     C     0.8713     0.8216     0.8428
A_3     C     0.6212     0.5393     0.9881
A_2     C     0.2088     0.4717     0.7961
A_2     C     0.1053     0.7784     0.1332
A_3     C     0.1531     0.4728     0.8797
A_0     C     0.369     0.6197     0.2994
A_0     C     0.8848     0.781     0.226
A_2     C     0.1354     0.7096     0.5214
A_2     C     0.7036     0.5652     0.7537
A_0     C     0.6896     0.3535     0.2011
A_2     C     0.8863     0.1166     0.2046
A_1     C     0.9842     0.2127     0.8797
A_1     C     0.803     0.7335     0.3615
A_3     C     0.5902     0.9108     0.7373
A_0     C     0.8718     0.0603     0.9794
A_2     C     0.319     0.0973     0.1333
A_2     C     0.5708     0.4458     0.9099
A_3     C     0.2345     0.91     0.8861
A_0     C     0.5316     0.8709     0.8325
A_0     C     0.8911     0.4799     0.2022
A_0     C     0.0879     0.9218     0.5283
A_0     C     0.664     0.6184     0.8392
A_2     C     0.0487     0.4261     0.1797
A_3     C     0.2018     0.128     0.1738
A_1     C     0.3296     0.5429     0.1213
A_3     C     0.4538     0.229     0.0997
A_2     C     0.1602     0.2119     0.7942
A_2     C     0.4242     0.8647     0.7452
A_1     C     0.9878     0.4318     0.5739
A_1     C     0.8503     0.5909     0.3745
A_1     C     0.0804     0.7373     0.3248
A_3     C     0.1038     0.4031     0.6848
A_3     C     0.642     0.036     0.8624
A_3     C     0.5325     0.085     0.5867
A_0     C     0.5122     0.2666     0.3017
A_2     C     0.2988     0.3929     0.193
A_0     C     0.5441     0.8233     0.4407
A_2     C     0.5155     0.8198     0.7295
A_2     C     0.6794     0.5745     0.4887
A_0     C     0.1714     0.4983     0.3957
A_3     C     0.4688     0.3647     0.5565
A_2     C     0.1853     0.0333     0.0263
A_1     C     0.9446     0.2664     0.0299
A_2     C     0.6614     0.5469     0.7851
A_2     C     0.6101     0.0251     0.1486
A_1     C     0.414     0.1193     0.7236
A_1     C     0.6676     0.3765     0.3149
A_1     C     0.8159     0.5243     0.679
A_0     C     0.923     0.9969     0.2845
A_0     C     0.2735     0.9053     0.9757
A_3     C     0.6247     0.5587     0.9342
A_3     C     0.1735     0.675     0.642
A_3     C     0.4238     0.3297     0.0798
A_1     C     0.8945     0.2931     0.6881
A_1     C     0.299     0.1032     0.8302
A_2     C     0.342     0.5036     0.4729
A_0     C     0.3424     0.2488     0.7357
A_1     C     0.035     0.6538     0.1192
A_1     C     0.3979     0.0932     0.6228
A_3     C     0.3658     0.4255     0.3743
A_2     C     0.1716     0.7973     0.3302
A_3     C     0.1115     0.4299     0.3681
A_2     C     0.3426     0.866     0.5519
A_2     C     0.1062     0.2672     0.1503
A_1     C     0.9023     0.7167     0.008
A_0     C     0.7443     0.1305     0.8371
A_3     C     0.7814     0.7841     0.9976
A_3     C     0.6329     0.6017     0.9249
A_0     C     0.3074     0.5113     0.8538
A_1     C     0.0354     0.8305     0.0071
A_2     C     0.0506     0.3989     0.1744
A_3     C     0.6129     0.4783     0.8891
A_0     C     0.4028     0.0902     0.7285
A_0     C     0.0391     0.0281     0.853
A_2     C     0.6625     0.3626     0.2621
A_2     C     0.7166     0.7198     0.8741
A_0     C     0.2302     0.6386     0.0513
A_2     C     0.7054     0.2318     0.946
A_0     C     0.8067     0.1128     0.6847
A_0     C     0.6345     0.8604     0.5306
A_3     C     0.0206     0.5504     0.9274
A_2     C     0.4149     0.4471     0.499
A_2     C     0.81     0.8292     0.9398
A_0     C     0.9501     0.3264     0.6422
A_3     C     0.1537     0.8415     0.3825
A_0     C     0.9885     0.3037     0.9853
A_1     C     0.9716     0.0044     0.8074
A_3     C     0.6453     0.3778     0.2721
A_1     C     0.1137     0.5538     0.0865
A_2     C     0.5605     0.8449     0.1045
A_3     C     0.6536     0.3403     0.6107
A_2     C     0.8478     0.2626     0.6848
A_2     C     0.7578     0.9272     0.066
A_1     C     0.4083     0.0025     0.6611
A_1     C     0.7199     0.2696     0.4119
A_0     C     0.2751     0.482     0.7923
A_3     C     0.3146     0.6996     0.5905
A_0     C     0.0833     0.5564     0.6176
A_3     C     0.5216     0.294     0.2666
A_0     C     0.2624     0.325     0.0716
A_1     C     0.9024     0.2476     0.6396
A_2     C     0.4763     0.2806     0.6123
A_1     C     0.3633     0.2575     0.8946
A_1     C     0.8035     0.077     0.8522
A_2     C     0.3991     0.2936     0.6583
A_2     C     0.0087     0.7444     0.2845
A_0     C     0.0471     0.6096     0.834
A_3     C     0.6637     0.4774     0.0468
A_3     C     0.7221     0.5066     0.0425
A_2     C     0.7595     0.7074     0.5586
A_0     C     0.8826     0.7077     0.9513
A_0     C     0.8723     0.0807     0.693
A_2     C     0.064     0.6342     0.5932
A_3     C     0.5379     0.1672     0.7878
A_1     C     0.6814     0.3037     0.3827
A_3     C     0.5509     0.4325     0.2708
A_3     C     0.1502     0.268     0.9376
A_2     C     0.9503     0.5214     0.9972
A_0     C     0.158     0.0154     0.0135
A_3     C     0.8128     0.9702     0.0752
A_2     C     0.8373     0.1631     0.3239
A_0     C     0.6226     0.3928     0.9308
A_1     C     0.5335     0.5414     0.322
A_3     C     0.8692     0.9825     0.281
A_1     C     0.0093     0.7973     0.1902
A_3     C     0.6381     0.4827     0.3084
A_3     C     0.6111     0.0084     0.774
A_1     C     0.2701     0.4744     0.2869
A_2     C     0.9683     0.0052     0.1101
A_1     C     0.3076     0.95     0.4225
A_3     C     0.9258     0.1701     0.158
A_3     C     0.9806     0.9557     0.0603
A_2     C     0.96     0.0724     0.3391
A_3     C     0.0453     0.5238     0.9909
A_2     C     0.9342     0.758     0.119
A_2     C     0.1639     0.9873     0.8772
A_0     C     0.7428     0.2051     0.3705
A_3     C     0.094     0.7272     0.3902
A_0     C     0.7316     0.6653     0.6612
A_0     C     0.62     0.9653     0.6972
A_0     C     0.3434     0.4766     0.9514
A_0     C     0.8351     0.7116     0.8856
A_0     C     0.9621     0.3059     0.2511
A_0     C     0.0629     0.0769     0.9141
A_0     C     0.8712     0.725     0.385
A_0     C     0.17     0.9334     0.9918
A_0     C     0.5506     0.2959     0.1338
A_0     C     0.7378     0.0776     0.341
A_0     C     0.4208     0.2147     0.3048
A_0     C     0.914     0.047     0.6273
A_0     C     0.8284     0.2274     0.6665
A_0     C     0.082     0.865     0.6638
A_0     C     0.988     0.4755     0.3443
A_0     C     0.0684     0.5881     0.1714
A_0     C     0.1702     0.9721     0.0084
A_0     C     0.8327     0.2669     0.7889
A_0     C     0.496     0.9838     0.177
A_0     C     0.2313     0.429     0.7469
A_0     C     0.9521     0.9042     0.9661
A_0     C     0.3883     0.6517     0.6916
A_0     C     0.7423     0.8768     0.4886
A_0     C     0.2327     0.8945     0.5937
A_0     C     0.1645     0.0142     0.686
A_0     C     0.2675     0.0432     0.8969
A_0     C     0.7762     0.3281     0.3319
A_0     C     0.2344     0.8856     0.3046
A_0     C     0.1336     0.724     0.3791
A_0     C     0.5213     0.6652     0.8556
A_0     C     0.6574     0.1981     0.8004
A_0     C     0.4572     0.9629     0.1169
A_0     C     0.2712     0.2896     0.6666
A_0     C     0.9704     0.3928     0.5457
A_0     C     0.5447     0.9187     0.5893
A_0     C     0.6006     0.015     0.7746
A_0     C     0.2455     0.9363     0.3641
A_0     C     0.3961     0.4226     0.6294
A_0     C     0.8974     0.9738     0.4705
A_0     C     0.5833     0.231     0.1138
A_0     C     0.5853     0.077     0.5065
A_0     C     0.42     0.2767     0.0259
A_0     C     0.469     0.2846     0.0236
A_0     C     0.0568     0.8181     0.0472
A_0     C     0.6514     0.4524     0.5787
A_0     C     0.7996     0.1826     0.0604
A_0     C     0.2373     0.8466     0.6709
A_0     C     0.4548     0.5618     0.2486
A_0     C     0.6622     0.4328     0.3054
A_0     C     0.6193     0.1241     0.8409
A_0     C     0.2912     0.8475     0.4878
A_0     C     0.583     0.4817     0.7492
A_0     C     0.2579     0.4021     0.0519
A_0     C     0.0528     0.5032     0.3972
A_0     C     0.8131     0.2247     0.191
A_0     C     0.36     0.6909     0.2819
A_0     C     0.3052     0.8157     0.6653
A_0     C     0.9097     0.7211     0.4731
A_0     C     0.5321     0.3004     0.5282
A_0     C     0.4177     0.1578     0.7912
A_0     C     0.4698     0.1092     0.4919
A_0     C     0.1141     0.9641     0.4564
A_0     C     0.478     0.378     0.5278
A_0     C     0.4683     0.0705     0.3584
A_0     C     0.6707     0.9133     0.8386
A_0     C     0.318     0.5777     0.2934
A_0     C     0.9649     0.374     0.6955
A_0     C     0.2895     0.5553     0.8549
A_0     C     0.7332     0.9771     0.5761
A_0     C     0.8809     0.9069     0.3835
A_0     C     0.9014     0.4872     0.5595
A_0     C     0.9115     0.1641     0.8849
A_0     C     0.0612     0.9915     0.6811
A_0     C     0.4124     0.6102     0.191
A_0     C     0.463     0.0014     0.0225
A_0     C     0.8805     0.452     0.2174
A_0     C     0.3008     0.997     0.9859
A_0     C     0.7146     0.3673     0.9881
A_0     C     0.7188     0.8887     0.6694
A_0     C     0.3878     0.8986     0.5212
A_0     C     0.7266     0.6133     0.2652
A_0     C     0.634     0.5905     0.9244
A_0     C     0.4244     0.4804     0.8319
A_0     C     0.1104     0.2884     0.6134
A_0     C     0.5464     0.1465     0.7774
A_0     C     0.6292     0.9809     0.7097
A_0     C     0.0703     0.2107     0.6523
A_0     C     0.2497     0.8338     0.5451
A_0     C     0.237     0.9069     0.29
A_0     C     0.2135     0.2076     0.8114
A_0     C     0.9772     0.9051     0.9259
A_0     C     0.3103     0.2772     0.486
A_0     C     0.1157     0.3288     0.885
A_0     C     0.1551     0.3286     0.327
A_0     C     0.061     0.9804     0.949
A_0     C     0.4179     0.742     0.8032
A_0     C     0.6214     0.9322     0.8232
A_0     C     0.5211     0.7864     0.5918
A_0     C     0.087     0.6122     0.2785
A_0     C     0.9915     0.5665     0.7744
A_0     C     0.7321     0.1417     0.4928
A_0     C     0.1545     0.5002     0.5094
A_0     C     0.3119     0.8777     0.3122
A_0     C     0.836     0.2305     0.9901
A_0     C     0.8351     0.0769     0.8491
A_0     C     0.7494     0.2036     0.2534
A_0     C     0.6997     0.4345     0.2793
A_0     C     0.8453     0.8827     0.7115
A_0     C     0.0848     0.169     0.3407
A_0     C     0.1344     0.6344     0.8363
A_0     C     0.4809     0.5305     0.9696
A_0     C     0.7775     0.3453     0.0942
A_0     C     0.8205     0.8867     0.3548
A_0     C     0.1648     0.7955     0.9402
A_0     C     0.2646     0.5824     0.8476
A_0     C     0.0539     0.1593     0.3749
A_0     C     0.8604     0.7887     0.9182
A_0     C     0.4892     0.0658     0.8178
A_0     C     0.2234     0.6605     0.2553
A_0     C     0.8888     0.6699     0.4616
A_0     C     0.2832     0.0436     0.1089
A_0     C     0.6773     0.4615     0.7486
A_0     C     0.4302     0.5346     0.6799
A_0     C     0.3103     0.8667     0.5141
A_0     C     0.0732     0.1638     0.7618
A_0     C     0.8342     0.9534     0.9009
A_0     C     0.5168     0.1033     0.7001
A_0     C     0.4955     0.238     0.1828
A_0     C     0.2892     0.9522     0.2595
A_0     C     0.7636     0.1709     0.94
A_0     C     0.4298     0.0761     0.6453
A_0     C     0.9199     0.3359     0.052
A_0     C     0.2679     0.4285     0.5556
A_0     C     0.4779     0.8819     0.9458
A_0     C     0.1114     0.4895     0.0512
A_0     C     0.0736     0.1308     0.1681
A_0     C     0.1262     0.0536     0.6982
A_0     C     0.6493     0.3615     0.1638
A_0     C     0.6802     0.87     0.2373
A_0     C     0.859     0.8655     0.0372
A_0     C     0.9737     0.6474     0.353
A_0     C     0.6726     0.2585     0.2
A_0     C     0.8443     0.9149     0.0892
A_0     C     0.7385     0.089     0.9554
A_0     C     0.2054     0.0773     0.5304
A_0     C     0.2893     0.3688     0.1803
A_0     C     0.1998     0.3412     0.9818
A_0     C     0.2824     0.2305     0.3129
A_0     C     0.6241     0.3775     0.172
A_0     C     0.968     0.3493     0.2056
A_0     C     0.5729     0.0379     0.0989
A_0     C     0.8258     0.6286     0.7273
A_0     C     0.0912     0.6953     0.7409
A_0     C     0.6545     0.4309     0.6042
A_0     C     0.3927     0.8032     0.8325
A_0     C     0.9287     0.712     0.4013
A_0     C     0.2208     0.7112     0.83
A_0     C     0.3929     0.6988     0.7913
A_0     C     0.6253     0.0442     0.6672
A_0     C     0.339     0.6412     0.3545
A_0     C     0.1863     0.4293     0.2319
A_0     C     0.3249     0.9667     0.1334
A_0     C     0.612     0.9181     0.3903
A_0     C     0.2274     0.4745     0.389
A_0     C     0.4216     0.829     0.2826
A_0     C     0.5365     0.7421     0.0354
A_0     C     0.6015     0.8495     0.4558
A_0     C     0.8791     0.4367     0.6313
A_0     C     0.4467     0.9273     0.3593
A_0     C     0.2689     0.3462     0.5272
