MAT-45

loop_
_symmetry_equiv_pos_as_xyz
  x,y,z
_cell_length_a          35.8193
_cell_length_b          33.1556
_cell_length_c          50.6735
_cell_angle_alpha       90.0000
_cell_angle_beta        90.0000
_cell_angle_gamma       90.0000
loop_
_atom_site_label
_atom_site_type_symbol
_atom_site_fract_x
_atom_site_fract_y
_atom_site_fract_z
A_1     C     0.7187     0.0054     0.3522
A_0     C     0.9141     0.543     0.4451
A_0     C     0.3466     0.0074     0.0199
A_2     C     0.6848     0.4835     0.2278
A_1     C     0.8311     0.312     0.8402
A_1     C     0.0169     0.0443     0.2052
A_3     C     0.3084     0.3403     0.7585
A_3     C     0.0127     0.4057     0.2652
A_0     C     0.467     0.8209     0.2973
A_3     C     0.758     0.3177     0.8259
A_1     C     0.3059     0.8522     0.6953
A_2     C     0.7321     0.9545     0.4561
A_1     C     0.7176     0.2731     0.217
A_0     C     0.884     0.1552     0.5597
A_3     C     0.3793     0.2721     0.0068
A_0     C     0.3972     0.8256     0.7985
A_2     C     0.3226     0.119     0.2774
A_1     C     0.9116     0.8998     0.9995
A_2     C     0.4395     0.4566     0.8514
A_0     C     0.993     0.4888     0.2651
A_3     C     0.2767     0.4161     0.2745
A_2     C     0.579     0.4999     0.467
A_2     C     0.2878     0.6826     0.7597
A_0     C     0.6723     0.377     0.3671
A_3     C     0.3976     0.6692     0.7344
A_0     C     0.3663     0.9409     0.8891
A_0     C     0.6766     0.2167     0.4108
A_2     C     0.4349     0.9108     0.1132
A_0     C     0.8633     0.7147     0.6504
A_0     C     0.9927     0.1414     0.3764
A_0     C     0.092     0.3835     0.9066
A_3     C     0.3236     0.3404     0.7426
A_2     C     0.694     0.1124     0.9841
A_1     C     0.101     0.2107     0.3801
A_0     C     0.3609     0.1369     0.5452
A_2     C     0.1528     0.4106     0.8872
A_0     C     0.0195     0.399     0.0391
A_1     C     0.0316     0.4076     0.7164
A_1     C     0.0114     0.8906     0.2611
A_0     C     0.8562     0.184     0.13
A_1     C     0.5859     0.3989     0.904
A_1     C     0.8568     0.2357     0.4659
A_2     C     0.3807     0.0643     0.2117
A_3     C     0.7065     0.8928     0.9228
A_1     C     0.8784     0.3585     0.2592
A_1     C     0.369     0.7744     0.2299
A_3     C     0.6338     0.8401     0.0502
A_2     C     0.9434     0.8111     0.1843
A_0     C     0.8202     0.2399     0.6147
A_2     C     0.9032     0.0991     0.432
A_3     C     0.2295     0.3079     0.6585
A_0     C     0.7716     0.9258     0.1469
A_2     C     0.1076     0.0654     0.118
A_1     C     0.4006     0.0996     0.7654
A_3     C     0.6915     0.0684     0.4384
A_0     C     0.3193     0.1807     0.4772
A_3     C     0.7944     0.3865     0.8778
A_1     C     0.2942     0.4081     0.8673
A_2     C     0.993     0.1332     0.4101
A_2     C     0.9512     0.1493     0.9851
A_2     C     0.3955     0.9088     0.7538
A_1     C     0.1353     0.9032     0.1044
A_1     C     0.8823     0.9909     0.2853
A_3     C     0.1339     0.8065     0.6427
A_1     C     0.9319     0.9619     0.995
A_1     C     0.544     0.7699     0.0314
A_1     C     0.262     0.2536     0.7717
A_1     C     0.6626     0.9025     0.9905
A_2     C     0.034     0.1347     0.4103
A_0     C     0.8591     0.759     0.9482
A_3     C     0.4489     0.0943     0.0917
A_0     C     0.9753     0.1313     0.6593
A_2     C     0.2618     0.4572     0.917
A_3     C     0.0483     0.611     0.7742
A_0     C     0.2273     0.9887     0.008
A_1     C     0.4896     0.4056     0.7529
A_3     C     0.6595     0.5513     0.3291
A_0     C     0.6041     0.4494     0.5533
A_3     C     0.1965     0.2493     0.2859
A_0     C     0.6629     0.4706     0.8432
A_3     C     0.3891     0.6442     0.0228
A_3     C     0.7862     0.9681     0.0295
A_0     C     0.9584     0.1824     0.1904
A_1     C     0.3579     0.9958     0.4893
A_2     C     0.1011     0.0487     0.4829
A_2     C     0.3009     0.0114     0.927
A_3     C     0.0064     0.5985     0.7583
A_3     C     0.8386     0.6089     0.3644
A_3     C     0.3517     0.9204     0.4356
A_0     C     0.5077     0.4193     0.6076
A_3     C     0.6194     0.7983     0.7082
A_0     C     0.3907     0.3511     0.5503
A_3     C     0.3099     0.7242     0.5728
A_2     C     0.4772     0.3125     0.066
A_0     C     0.7965     0.3082     0.6598
A_1     C     0.8538     0.6732     0.0357
A_2     C     0.1637     0.5975     0.6345
A_2     C     0.1255     0.3669     0.3272
A_2     C     0.7565     0.7711     0.9475
A_0     C     0.784     0.7394     0.4558
A_2     C     0.3387     0.2239     0.021
A_0     C     0.5568     0.8516     0.969
A_3     C     0.0707     0.347     0.0664
A_3     C     0.187     0.5111     0.7848
A_3     C     0.3993     0.0077     0.5642
A_1     C     0.5972     0.2005     0.3066
A_3     C     0.8004     0.9746     0.5239
A_2     C     0.1086     0.6568     0.1061
A_3     C     0.0864     0.706     0.4462
A_3     C     0.8052     0.6739     0.7598
A_2     C     0.4802     0.2706     0.4015
A_3     C     0.4468     0.2185     0.4637
A_1     C     0.8175     0.2497     0.449
A_3     C     0.4144     0.4208     0.8248
A_2     C     0.9261     0.5731     0.5884
A_1     C     0.1592     0.5567     0.4511
A_0     C     0.2533     0.8743     0.3912
A_1     C     0.224     0.5456     0.0283
A_3     C     0.8827     0.6674     0.1125
A_3     C     0.5126     0.9927     0.3173
A_1     C     0.7809     0.5967     0.5188
A_1     C     0.3903     0.2796     0.9065
A_3     C     0.8628     0.035     0.0536
A_2     C     0.8627     0.3487     0.6902
A_2     C     0.8854     0.652     0.697
A_2     C     0.455     0.7638     0.4482
A_2     C     0.8462     0.8207     0.6402
A_0     C     0.1141     0.3445     0.659
A_3     C     0.6402     0.8042     0.0865
A_2     C     0.5419     0.2745     0.1338
A_1     C     0.5131     0.9857     0.2739
A_1     C     0.6378     0.7579     0.9595
A_0     C     0.8606     0.6681     0.5758
A_3     C     0.9762     0.1489     0.7383
A_3     C     0.3458     0.555     0.6401
A_0     C     0.7492     0.0573     0.6837
A_1     C     0.0109     0.6012     0.9908
A_0     C     0.0634     0.4467     0.0117
A_1     C     0.2102     0.6784     0.5237
A_1     C     0.7224     0.7659     0.4351
A_0     C     0.4367     0.1414     0.0822
A_2     C     0.3858     0.515     0.7056
A_3     C     0.4727     0.0033     0.4582
A_0     C     0.9125     0.0151     0.19
A_1     C     0.2838     0.2026     0.1535
A_1     C     0.4243     0.4161     0.4366
A_3     C     0.8948     0.3984     0.1527
A_2     C     0.3327     0.934     0.5694
A_1     C     0.0077     0.3726     0.912
A_1     C     0.7019     0.9308     0.4567
A_2     C     0.8402     0.4578     0.8676
A_0     C     0.6112     0.7696     0.4384
A_1     C     0.5395     0.0352     0.6295
A_3     C     0.7819     0.1827     0.8666
A_2     C     0.6835     0.698     0.0069
A_1     C     0.4782     0.7933     0.8609
A_2     C     0.2337     0.4461     0.182
A_2     C     0.4424     0.3382     0.9353
A_2     C     0.287     0.7542     0.8376
A_0     C     0.2683     0.8483     0.5599
A_1     C     0.7074     0.8322     0.0323
A_1     C     0.1139     0.8751     0.3097
A_2     C     0.3701     0.5545     0.754
A_3     C     0.0609     0.4608     0.3889
A_3     C     0.3102     0.4083     0.5768
A_2     C     0.7076     0.9971     0.7308
A_3     C     0.6775     0.4049     0.2062
A_2     C     0.7698     0.6686     0.7428
A_2     C     0.8193     0.5513     0.2272
A_0     C     0.5429     0.3709     0.4888
A_2     C     0.9537     0.3795     0.9225
A_0     C     0.1782     0.5851     0.009
A_0     C     0.7678     0.5235     0.3408
A_1     C     0.8273     0.527     0.8488
A_1     C     0.3377     0.0756     0.7036
A_0     C     0.7688     0.7298     0.7139
A_1     C     0.4845     0.0845     0.3328
A_2     C     0.9243     0.9134     0.0288
A_3     C     0.2288     0.2558     0.0342
A_2     C     0.3251     0.4642     0.3557
A_2     C     0.006     0.6483     0.1119
A_3     C     0.0592     0.3296     0.7578
A_2     C     0.3545     0.9051     0.5276
A_3     C     0.4162     0.4069     0.4273
A_3     C     0.5467     0.8571     0.2063
A_2     C     0.1127     0.7209     0.5991
A_3     C     0.1617     0.8883     0.867
A_2     C     0.8688     0.59     0.1051
A_0     C     0.4348     0.9233     0.0426
A_2     C     0.8099     0.9654     0.0564
A_2     C     0.6228     0.1823     0.9537
A_2     C     0.1745     0.9349     0.6262
A_1     C     0.2653     0.7407     0.1384
A_1     C     0.3282     0.6328     0.5481
A_2     C     0.7387     0.1421     0.655
A_1     C     0.8785     0.1012     0.2401
A_2     C     0.1729     0.7509     0.6302
A_2     C     0.55     0.3152     0.0027
A_3     C     0.1717     0.996     0.2208
A_3     C     0.8261     0.8317     0.4024
A_0     C     0.8205     0.181     0.6484
A_2     C     0.9871     0.61     0.3585
A_3     C     0.9883     0.8505     0.5864
A_1     C     0.3798     0.7544     0.7057
A_0     C     0.5188     0.6039     0.0925
A_1     C     0.4361     0.2243     0.4724
A_3     C     0.8892     0.885     0.3089
A_2     C     0.8721     0.5955     0.2649
A_3     C     0.8373     0.1843     0.8051
A_3     C     0.7592     0.7171     0.8979
A_2     C     0.1965     0.5422     0.7741
A_2     C     0.0793     0.8244     0.6924
A_0     C     0.8211     0.5479     0.4438
A_3     C     0.5155     0.3041     0.4993
A_0     C     0.6787     0.1937     0.9169
A_1     C     0.3681     0.3221     0.5665
A_0     C     0.2646     0.1762     0.1315
A_2     C     0.2232     0.8166     0.9423
A_3     C     0.4162     0.7046     0.7108
A_1     C     0.2071     0.9288     0.3238
A_1     C     0.5983     0.3226     0.7034
A_1     C     0.543     0.672     0.1992
A_1     C     0.731     0.6798     0.8034
A_0     C     0.6151     0.9678     0.449
A_2     C     0.6253     0.089     0.2634
A_1     C     0.2967     0.4078     0.4121
A_0     C     0.9649     0.6756     0.5949
A_0     C     0.4556     0.762     0.1384
A_2     C     0.9658     0.247     0.0621
A_2     C     0.2155     0.1568     0.3947
A_3     C     0.7346     0.9775     0.212
A_3     C     0.2476     0.8697     0.8754
A_1     C     0.4077     0.3153     0.427
A_0     C     0.5929     0.5     0.4948
A_3     C     0.5414     0.5775     0.7664
A_2     C     0.0079     0.4465     0.1803
A_0     C     0.5445     0.6476     0.9984
A_3     C     0.2738     0.6816     0.0056
A_0     C     0.6237     0.6223     0.4936
A_2     C     0.4826     0.0012     0.7323
A_2     C     0.6421     0.4264     0.5235
A_3     C     0.6876     0.8904     0.5041
A_0     C     0.7768     0.6238     0.5783
A_3     C     0.4499     0.0904     0.4248
A_0     C     0.9543     0.1221     0.3405
A_1     C     0.1401     0.2042     0.2322
A_3     C     0.5107     0.4323     0.8519
A_0     C     0.6045     0.2069     0.9765
A_0     C     0.4476     0.7423     0.5405
A_1     C     0.1807     0.6235     0.9509
A_0     C     0.6321     0.1238     0.0927
A_0     C     0.8862     0.6071     0.6539
A_1     C     0.5514     0.9348     0.9181
A_3     C     0.3981     0.6436     0.5009
A_3     C     0.6904     0.7031     0.8184
A_1     C     0.3862     0.0432     0.6244
A_2     C     0.7583     0.5518     0.2401
A_2     C     0.8977     0.7436     0.5168
A_0     C     0.8182     0.3874     0.0712
A_1     C     0.7919     0.2322     0.4988
A_2     C     0.6056     0.2672     0.1724
A_2     C     0.8436     0.7828     0.9473
A_2     C     0.3249     0.6952     0.2844
A_0     C     0.0692     0.4173     0.5462
A_2     C     0.8772     0.3131     0.3755
A_2     C     0.7365     0.501     0.7826
A_2     C     0.9115     0.7399     0.5905
A_1     C     0.1086     0.1184     0.6203
A_1     C     0.2123     0.246     0.2995
A_1     C     0.889     0.2262     0.4244
A_3     C     0.2815     0.7982     0.5612
A_2     C     0.6832     0.3308     0.7661
A_1     C     0.7106     0.1815     0.5302
A_3     C     0.4559     0.7783     0.9867
A_2     C     0.999     0.2209     0.6436
A_1     C     0.6118     0.1085     0.527
A_3     C     0.2232     0.7574     0.1854
A_3     C     0.7811     0.9819     0.3467
A_0     C     0.9533     0.9591     0.4533
A_1     C     0.6406     0.0431     0.2662
A_0     C     0.9949     0.363     0.0102
A_0     C     0.0388     0.0112     0.4514
A_3     C     0.9526     0.7278     0.4319
A_2     C     0.1159     0.7641     0.2052
A_1     C     0.5168     0.3022     0.5369
A_1     C     0.0631     0.3003     0.3003
A_0     C     0.7318     0.8691     0.9367
A_2     C     0.5267     0.2109     0.0869
A_0     C     0.6141     0.4221     0.3208
A_1     C     0.3469     0.8347     0.6954
A_0     C     0.5237     0.8143     0.4664
A_2     C     0.6505     0.2562     0.4211
A_2     C     0.6934     0.8541     0.0721
A_3     C     0.6239     0.9779     0.6469
A_1     C     0.2689     0.6203     0.6606
A_0     C     0.2818     0.505     0.9858
A_1     C     0.8156     0.2603     0.8961
A_2     C     0.9256     0.7173     0.5199
A_2     C     0.7112     0.7105     0.5794
A_3     C     0.1457     0.3139     0.4319
A_1     C     0.1445     0.414     0.5391
A_2     C     0.9941     0.4055     0.4822
A_0     C     0.6864     0.7805     0.7748
A_0     C     0.0952     0.6629     0.1911
A_3     C     0.9082     0.3819     0.5776
A_1     C     0.4672     0.9582     0.5692
A_3     C     0.0294     0.4727     0.9258
A_0     C     0.8932     0.4847     0.5904
A_1     C     0.1576     0.2352     0.8259
A_1     C     0.2827     0.8046     0.1359
A_0     C     0.6759     0.9923     0.4273
A_3     C     0.3336     0.4982     0.1757
A_0     C     0.3558     0.0474     0.0042
A_0     C     0.3693     0.3786     0.331
A_3     C     0.4871     0.1524     0.8363
A_2     C     0.8496     0.211     0.0893
A_0     C     0.2211     0.3431     0.5861
A_1     C     0.7042     0.6229     0.6635
A_3     C     0.7746     0.9623     0.703
A_2     C     0.7859     0.2754     0.6156
A_2     C     0.9178     0.5008     0.4173
A_1     C     0.1741     0.1451     0.5389
A_0     C     0.6287     0.2712     0.3869
A_1     C     0.5761     0.3201     0.6168
A_1     C     0.8378     0.5062     0.4101
A_2     C     0.6073     0.6318     0.0905
A_0     C     0.2876     0.1792     0.3706
A_3     C     0.2761     0.1728     0.8005
A_3     C     0.0681     0.7424     0.6695
A_2     C     0.4082     0.5453     0.3523
A_1     C     0.5437     0.289     0.8265
A_1     C     0.177     0.9046     0.8202
A_0     C     0.4646     0.1497     0.018
A_0     C     0.3744     0.3974     0.4248
A_1     C     0.9578     0.3588     0.9665
A_1     C     0.5862     0.8581     0.9557
A_0     C     0.0619     0.1021     0.6724
A_3     C     0.8111     0.4336     0.6265
A_3     C     0.2654     0.6936     0.592
A_2     C     0.4499     0.4981     0.0348
A_0     C     0.236     0.2191     0.9391
A_3     C     0.4185     0.9036     0.8913
A_0     C     0.9356     0.5469     0.6334
A_0     C     0.3599     0.9154     0.6055
A_1     C     0.5744     0.4746     0.5848
A_3     C     0.3972     0.7492     0.2526
A_0     C     0.7015     0.7534     0.693
A_0     C     0.9245     0.7074     0.1008
A_3     C     0.7952     0.0101     0.4965
A_3     C     0.6837     0.986     0.6079
A_0     C     0.0525     0.1671     0.4664
A_2     C     0.2248     0.2427     0.5544
A_2     C     0.1522     0.0921     0.8099
A_3     C     0.48     0.9472     0.7881
A_2     C     0.0338     0.0324     0.3125
A_0     C     0.5715     0.2717     0.1105
A_3     C     0.7942     0.2521     0.3647
A_2     C     0.1021     0.5994     0.7625
A_0     C     0.83     0.5861     0.0252
A_3     C     0.0868     0.1794     0.6146
A_0     C     0.1873     0.6678     0.6309
A_2     C     0.374     0.4584     0.8925
A_0     C     0.4875     0.5515     0.7062
A_0     C     0.7677     0.3132     0.1666
A_1     C     0.8274     0.8499     0.7303
A_1     C     0.6315     0.7704     0.6402
A_1     C     0.3999     0.1959     0.0889
A_0     C     0.3802     0.8172     0.0291
A_3     C     0.6802     0.7945     0.1418
A_1     C     0.6075     0.5657     0.8556
A_0     C     0.2877     0.6108     0.7742
A_1     C     0.9549     0.18     0.418
A_1     C     0.3921     0.0113     0.4288
A_1     C     0.8793     0.7057     0.6751
A_3     C     0.6685     0.1535     0.1152
A_1     C     0.1621     0.2895     0.4342
A_2     C     0.1325     0.0457     0.4255
A_3     C     0.9616     0.9443     0.0218
A_0     C     0.3231     0.7933     0.2994
A_0     C     0.4595     0.4473     0.5724
A_2     C     0.7502     0.0708     0.5252
A_1     C     0.8873     0.9578     0.6688
A_1     C     0.4477     0.275     0.7949
A_3     C     0.2282     0.5427     0.3921
A_3     C     0.3135     0.7028     0.233
A_0     C     0.0247     0.6055     0.8126
A_2     C     0.6075     0.6499     0.8404
A_1     C     0.408     0.7139     0.9369
A_2     C     0.6603     0.3122     0.2491
A_3     C     0.4541     0.8721     0.9848
A_3     C     0.9259     0.9855     0.1371
A_3     C     0.6027     0.2019     0.2554
A_0     C     0.5789     0.3023     0.493
A_0     C     0.2295     0.6175     0.4061
A_2     C     0.5142     0.1862     0.7862
A_2     C     0.0517     0.5841     0.9549
A_2     C     0.941     0.7105     0.9265
A_0     C     0.7518     0.5409     0.9057
A_3     C     0.3929     0.8102     0.7879
A_0     C     0.5326     0.722     0.8832
A_2     C     0.7619     0.3513     0.8729
A_3     C     0.4206     0.3366     0.2405
A_0     C     0.1559     0.4871     0.9367
A_2     C     0.5551     0.9285     0.7101
A_0     C     0.679     0.3351     0.4247
A_1     C     0.1919     0.7767     0.4843
A_1     C     0.1807     0.4847     0.5265
A_0     C     0.4417     0.5168     0.8054
A_0     C     0.709     0.3297     0.2075
A_0     C     0.9438     0.9874     0.1183
A_0     C     0.3127     0.5778     0.512
A_3     C     0.5932     0.7849     0.6621
A_0     C     0.4436     0.7708     0.2835
A_2     C     0.9576     0.2172     0.1978
A_0     C     0.7522     0.2835     0.4192
A_3     C     0.2646     0.2596     0.7571
A_0     C     0.4414     0.966     0.6129
A_0     C     0.0457     0.1459     0.1176
A_0     C     0.5342     0.8864     0.9491
A_2     C     0.9072     0.4402     0.2391
A_0     C     0.4484     0.7957     0.3495
A_2     C     0.3767     0.5864     0.2755
A_0     C     0.3504     0.3944     0.3496
A_3     C     0.2828     0.9186     0.7079
A_0     C     0.5598     0.7481     0.6128
A_0     C     0.9909     0.3296     0.6014
A_2     C     0.1654     0.665     0.5684
A_0     C     0.412     0.0725     0.3594
A_3     C     0.7394     0.3555     0.7054
A_1     C     0.4611     0.179     0.2973
A_3     C     0.6329     0.2357     0.3751
A_0     C     0.9457     0.1403     0.1266
A_1     C     0.6215     0.5154     0.2818
